file 40063 1507880599                                           
version 2
run General-0-20171013-09:43:05-8096
attr configname General
attr datetime 20171013-09:43:05
attr experiment General
attr inifile omnetpp.ini
attr iterationvars ""
attr iterationvarsf ""
attr measurement ""
attr network smallNetwork
attr processid 8096
attr repetition 0
attr replication #0
attr resultdir results
attr runnumber 0
attr seedset 0
param **.canNode1.numSourceApps 3
param **.canNode1.sourceApp[0].dataLengthDataFrames "\"8\""
param **.canNode1.sourceApp[0].idDataFrames "\"1\""
param **.canNode1.sourceApp[0].initialDataFrameOffset "\"0.0\""
param **.canNode1.sourceApp[0].periodicityDataFrames "\"0.01\""
param **.canNode1.sourceApp[1].dataLengthDataFrames "\"8\""
param **.canNode1.sourceApp[1].idDataFrames "\"2\""
param **.canNode1.sourceApp[1].initialDataFrameOffset "\"0.0\""
param **.canNode1.sourceApp[1].periodicityDataFrames "\"0.015\""
param **.canNode1.sourceApp[2].dataLengthDataFrames "\"8\""
param **.canNode1.sourceApp[2].idDataFrames "\"3\""
param **.canNode1.sourceApp[2].initialDataFrameOffset "\"0.0\""
param **.canNode1.sourceApp[2].periodicityDataFrames "\"0.02\""
param **.canNode2.bufferIn[0].destination_gates "\"sinkApp[0].dataIn\""
param **.canNode2.bufferIn[0].idIncomingFrames "\"1\""
param **.canNode2.bufferIn[1].destination_gates "\"sinkApp[1].dataIn\""
param **.canNode2.bufferIn[1].idIncomingFrames "\"2\""
param **.canNode2.bufferIn[2].destination_gates "\"sinkApp[2].dataIn\""
param **.canNode2.bufferIn[2].idIncomingFrames "\"3\""
param **.canNode2.numInputBuffer 3
param **.canNode2.numSinkApps 3
param **.canNode2.numSourceApps 0
param **.canbus1.bandwidth "500000 bps"
param **.canbus2.bandwidth "500000 bps"
param **.ct_marker 0x03040506
param **.ct_mask -1
param **.gateway.transform[*].typename "\"GatewayTransformation\""
param **.gateway1.can[0].bufferIn[0].destination_gates "\"sinkApp[0].dataIn\""
param **.gateway1.can[0].bufferIn[0].idIncomingFrames "\"1, 2, 3\""
param **.gateway1.countOfCanBusses 1
param **.gateway1.gateway.configXML "xmldoc(\"gateway1.xml\")"
param **.gateway1.tte[0].gatewayApp.buffers "\"bgOut\""
param **.gateway1.tte[0].numberOfRC_Vlinks 0
param **.gateway1.tte[0].numberOfTT_Vlinks 0
param **.gateway1.tte[0].phy[0].mac.address "\"CB-98-6D-ED-BD-FC\""
param **.gateway2.can[0].sourceApp[0].dataLengthDataFrames "\"8, 8, 8\""
param **.gateway2.can[0].sourceApp[0].idDataFrames "\"1, 2, 3\""
param **.gateway2.can[0].sourceApp[0].initialDataFrameOffset "\"0.0, 0.0, 0.0\""
param **.gateway2.can[0].sourceApp[0].periodicityDataFrames "\"0.01, 0.015, 0.02\""
param **.gateway2.countOfCanBusses 1
param **.gateway2.gateway.configXML "xmldoc(\"gateway2.xml\")"
param **.gateway2.tte[0].gatewayApp.buffers "\"bgOut\""
param **.gateway2.tte[0].numberOfRC_Vlinks 0
param **.gateway2.tte[0].numberOfTT_Vlinks 0
param **.gateway2.tte[0].phy[0].mac.address "\"4F-DC-03-FF-03-4B\""
param **.scheduler.tick 8.0E-8s
param **.switch1.hardware_delay 8000ns
param **.switch1.phy[0].taggedVIDs "\"\""
param **.switch1.phy[1].taggedVIDs "\"\""

vector 236  smallNetwork.gateway1.tte[0].phy[0].shaper  q0QueueLength:vector  ETV
attr interpolationmode  sample-hold
attr title  "Q-Queue Length (q0QueueLength)"
vector 237  smallNetwork.gateway1.tte[0].phy[0].shaper  q0QueueSize:vector  ETV
attr interpolationmode  sample-hold
attr title  "Q-Queue Size (q0QueueSize)"
attr unit  B
vector 238  smallNetwork.gateway1.tte[0].phy[0].shaper  q1QueueLength:vector  ETV
attr interpolationmode  sample-hold
attr title  "Q-Queue Length (q1QueueLength)"
vector 239  smallNetwork.gateway1.tte[0].phy[0].shaper  q1QueueSize:vector  ETV
attr interpolationmode  sample-hold
attr title  "Q-Queue Size (q1QueueSize)"
attr unit  B
vector 240  smallNetwork.gateway1.tte[0].phy[0].shaper  q2QueueLength:vector  ETV
attr interpolationmode  sample-hold
attr title  "Q-Queue Length (q2QueueLength)"
vector 241  smallNetwork.gateway1.tte[0].phy[0].shaper  q2QueueSize:vector  ETV
attr interpolationmode  sample-hold
attr title  "Q-Queue Size (q2QueueSize)"
attr unit  B
vector 242  smallNetwork.gateway1.tte[0].phy[0].shaper  q3QueueLength:vector  ETV
attr interpolationmode  sample-hold
attr title  "Q-Queue Length (q3QueueLength)"
vector 243  smallNetwork.gateway1.tte[0].phy[0].shaper  q3QueueSize:vector  ETV
attr interpolationmode  sample-hold
attr title  "Q-Queue Size (q3QueueSize)"
attr unit  B
vector 244  smallNetwork.gateway1.tte[0].phy[0].shaper  q4QueueLength:vector  ETV
attr interpolationmode  sample-hold
attr title  "Q-Queue Length (q4QueueLength)"
vector 245  smallNetwork.gateway1.tte[0].phy[0].shaper  q4QueueSize:vector  ETV
attr interpolationmode  sample-hold
attr title  "Q-Queue Size (q4QueueSize)"
attr unit  B
vector 246  smallNetwork.gateway1.tte[0].phy[0].shaper  q5QueueLength:vector  ETV
attr interpolationmode  sample-hold
attr title  "Q-Queue Length (q5QueueLength)"
vector 247  smallNetwork.gateway1.tte[0].phy[0].shaper  q5QueueSize:vector  ETV
attr interpolationmode  sample-hold
attr title  "Q-Queue Size (q5QueueSize)"
attr unit  B
vector 248  smallNetwork.gateway1.tte[0].phy[0].shaper  q6QueueLength:vector  ETV
attr interpolationmode  sample-hold
attr title  "Q-Queue Length (q6QueueLength)"
vector 249  smallNetwork.gateway1.tte[0].phy[0].shaper  q6QueueSize:vector  ETV
attr interpolationmode  sample-hold
attr title  "Q-Queue Size (q6QueueSize)"
attr unit  B
vector 250  smallNetwork.gateway1.tte[0].phy[0].shaper  q7QueueLength:vector  ETV
attr interpolationmode  sample-hold
attr title  "Q-Queue Length (q7QueueLength)"
vector 251  smallNetwork.gateway1.tte[0].phy[0].shaper  q7QueueSize:vector  ETV
attr interpolationmode  sample-hold
attr title  "Q-Queue Size (q7QueueSize)"
attr unit  B
vector 252  smallNetwork.gateway1.tte[0].phy[0].shaper  rc0QueueLength:vector  ETV
attr interpolationmode  sample-hold
attr title  "RC-Queue Length (rc0QueueLength)"
attr unit  packets
vector 253  smallNetwork.gateway1.tte[0].phy[0].shaper  rc0QueueSize:vector  ETV
attr interpolationmode  sample-hold
attr title  "RC-Queue Size (rc0QueueSize)"
attr unit  B
vector 254  smallNetwork.gateway1.tte[0].phy[0].shaper  rc1QueueLength:vector  ETV
attr interpolationmode  sample-hold
attr title  "RC-Queue Length (rc1QueueLength)"
attr unit  packets
vector 255  smallNetwork.gateway1.tte[0].phy[0].shaper  rc1QueueSize:vector  ETV
attr interpolationmode  sample-hold
attr title  "RC-Queue Size (rc1QueueSize)"
attr unit  B
vector 256  smallNetwork.gateway1.tte[0].phy[0].shaper  rc2QueueLength:vector  ETV
attr interpolationmode  sample-hold
attr title  "RC-Queue Length (rc2QueueLength)"
attr unit  packets
vector 257  smallNetwork.gateway1.tte[0].phy[0].shaper  rc2QueueSize:vector  ETV
attr interpolationmode  sample-hold
attr title  "RC-Queue Size (rc2QueueSize)"
attr unit  B
vector 258  smallNetwork.gateway1.tte[0].phy[0].shaper  rc3QueueLength:vector  ETV
attr interpolationmode  sample-hold
attr title  "RC-Queue Length (rc3QueueLength)"
attr unit  packets
vector 259  smallNetwork.gateway1.tte[0].phy[0].shaper  rc3QueueSize:vector  ETV
attr interpolationmode  sample-hold
attr title  "RC-Queue Size (rc3QueueSize)"
attr unit  B
vector 260  smallNetwork.gateway1.tte[0].phy[0].shaper  rc4QueueLength:vector  ETV
attr interpolationmode  sample-hold
attr title  "RC-Queue Length (rc4QueueLength)"
attr unit  packets
vector 261  smallNetwork.gateway1.tte[0].phy[0].shaper  rc4QueueSize:vector  ETV
attr interpolationmode  sample-hold
attr title  "RC-Queue Size (rc4QueueSize)"
attr unit  B
vector 262  smallNetwork.gateway1.tte[0].phy[0].shaper  rc5QueueLength:vector  ETV
attr interpolationmode  sample-hold
attr title  "RC-Queue Length (rc5QueueLength)"
attr unit  packets
vector 263  smallNetwork.gateway1.tte[0].phy[0].shaper  rc5QueueSize:vector  ETV
attr interpolationmode  sample-hold
attr title  "RC-Queue Size (rc5QueueSize)"
attr unit  B
vector 264  smallNetwork.gateway1.tte[0].phy[0].shaper  rc6QueueLength:vector  ETV
attr interpolationmode  sample-hold
attr title  "RC-Queue Length (rc6QueueLength)"
attr unit  packets
vector 265  smallNetwork.gateway1.tte[0].phy[0].shaper  rc6QueueSize:vector  ETV
attr interpolationmode  sample-hold
attr title  "RC-Queue Size (rc6QueueSize)"
attr unit  B
vector 266  smallNetwork.gateway1.tte[0].phy[0].shaper  rc7QueueLength:vector  ETV
attr interpolationmode  sample-hold
attr title  "RC-Queue Length (rc7QueueLength)"
attr unit  packets
vector 267  smallNetwork.gateway1.tte[0].phy[0].shaper  rc7QueueSize:vector  ETV
attr interpolationmode  sample-hold
attr title  "RC-Queue Size (rc7QueueSize)"
attr unit  B
vector 268  smallNetwork.gateway1.tte[0].phy[0].shaper  rc8QueueLength:vector  ETV
attr interpolationmode  sample-hold
attr title  "RC-Queue Length (rc8QueueLength)"
attr unit  packets
vector 269  smallNetwork.gateway1.tte[0].phy[0].shaper  rc8QueueSize:vector  ETV
attr interpolationmode  sample-hold
attr title  "RC-Queue Size (rc8QueueSize)"
attr unit  B
vector 270  smallNetwork.gateway1.tte[0].phy[0].shaper  rc9QueueLength:vector  ETV
attr interpolationmode  sample-hold
attr title  "RC-Queue Length (rc9QueueLength)"
attr unit  packets
vector 271  smallNetwork.gateway1.tte[0].phy[0].shaper  rc9QueueSize:vector  ETV
attr interpolationmode  sample-hold
attr title  "RC-Queue Size (rc9QueueSize)"
attr unit  B
vector 19  smallNetwork.gateway1.tte[0].phy[0].shaper  pcfQueueLength:vector  ETV
attr interpolationmode  sample-hold
attr title  "PCF-Queue Length, vector"
attr unit  packets
vector 20  smallNetwork.gateway1.tte[0].phy[0].shaper  pcfQueueSize:vector  ETV
attr interpolationmode  sample-hold
attr title  "BE-Queue Size, vector"
attr unit  B
vector 21  smallNetwork.gateway1.tte[0].phy[0].shaper  ttQueueLength:vector  ETV
attr interpolationmode  sample-hold
attr title  "TT-Queue Length, vector"
attr unit  packets
vector 272  smallNetwork.gateway2.tte[0].phy[0].shaper  q0QueueLength:vector  ETV
attr interpolationmode  sample-hold
attr title  "Q-Queue Length (q0QueueLength)"
vector 273  smallNetwork.gateway2.tte[0].phy[0].shaper  q0QueueSize:vector  ETV
attr interpolationmode  sample-hold
attr title  "Q-Queue Size (q0QueueSize)"
attr unit  B
vector 274  smallNetwork.gateway2.tte[0].phy[0].shaper  q1QueueLength:vector  ETV
attr interpolationmode  sample-hold
attr title  "Q-Queue Length (q1QueueLength)"
vector 275  smallNetwork.gateway2.tte[0].phy[0].shaper  q1QueueSize:vector  ETV
attr interpolationmode  sample-hold
attr title  "Q-Queue Size (q1QueueSize)"
attr unit  B
vector 276  smallNetwork.gateway2.tte[0].phy[0].shaper  q2QueueLength:vector  ETV
attr interpolationmode  sample-hold
attr title  "Q-Queue Length (q2QueueLength)"
vector 277  smallNetwork.gateway2.tte[0].phy[0].shaper  q2QueueSize:vector  ETV
attr interpolationmode  sample-hold
attr title  "Q-Queue Size (q2QueueSize)"
attr unit  B
vector 278  smallNetwork.gateway2.tte[0].phy[0].shaper  q3QueueLength:vector  ETV
attr interpolationmode  sample-hold
attr title  "Q-Queue Length (q3QueueLength)"
vector 279  smallNetwork.gateway2.tte[0].phy[0].shaper  q3QueueSize:vector  ETV
attr interpolationmode  sample-hold
attr title  "Q-Queue Size (q3QueueSize)"
attr unit  B
vector 280  smallNetwork.gateway2.tte[0].phy[0].shaper  q4QueueLength:vector  ETV
attr interpolationmode  sample-hold
attr title  "Q-Queue Length (q4QueueLength)"
vector 281  smallNetwork.gateway2.tte[0].phy[0].shaper  q4QueueSize:vector  ETV
attr interpolationmode  sample-hold
attr title  "Q-Queue Size (q4QueueSize)"
attr unit  B
vector 282  smallNetwork.gateway2.tte[0].phy[0].shaper  q5QueueLength:vector  ETV
attr interpolationmode  sample-hold
attr title  "Q-Queue Length (q5QueueLength)"
vector 283  smallNetwork.gateway2.tte[0].phy[0].shaper  q5QueueSize:vector  ETV
attr interpolationmode  sample-hold
attr title  "Q-Queue Size (q5QueueSize)"
attr unit  B
vector 284  smallNetwork.gateway2.tte[0].phy[0].shaper  q6QueueLength:vector  ETV
attr interpolationmode  sample-hold
attr title  "Q-Queue Length (q6QueueLength)"
vector 285  smallNetwork.gateway2.tte[0].phy[0].shaper  q6QueueSize:vector  ETV
attr interpolationmode  sample-hold
attr title  "Q-Queue Size (q6QueueSize)"
attr unit  B
vector 286  smallNetwork.gateway2.tte[0].phy[0].shaper  q7QueueLength:vector  ETV
attr interpolationmode  sample-hold
attr title  "Q-Queue Length (q7QueueLength)"
vector 287  smallNetwork.gateway2.tte[0].phy[0].shaper  q7QueueSize:vector  ETV
attr interpolationmode  sample-hold
attr title  "Q-Queue Size (q7QueueSize)"
attr unit  B
vector 288  smallNetwork.gateway2.tte[0].phy[0].shaper  rc0QueueLength:vector  ETV
attr interpolationmode  sample-hold
attr title  "RC-Queue Length (rc0QueueLength)"
attr unit  packets
vector 289  smallNetwork.gateway2.tte[0].phy[0].shaper  rc0QueueSize:vector  ETV
attr interpolationmode  sample-hold
attr title  "RC-Queue Size (rc0QueueSize)"
attr unit  B
vector 290  smallNetwork.gateway2.tte[0].phy[0].shaper  rc1QueueLength:vector  ETV
attr interpolationmode  sample-hold
attr title  "RC-Queue Length (rc1QueueLength)"
attr unit  packets
vector 291  smallNetwork.gateway2.tte[0].phy[0].shaper  rc1QueueSize:vector  ETV
attr interpolationmode  sample-hold
attr title  "RC-Queue Size (rc1QueueSize)"
attr unit  B
vector 292  smallNetwork.gateway2.tte[0].phy[0].shaper  rc2QueueLength:vector  ETV
attr interpolationmode  sample-hold
attr title  "RC-Queue Length (rc2QueueLength)"
attr unit  packets
vector 293  smallNetwork.gateway2.tte[0].phy[0].shaper  rc2QueueSize:vector  ETV
attr interpolationmode  sample-hold
attr title  "RC-Queue Size (rc2QueueSize)"
attr unit  B
vector 294  smallNetwork.gateway2.tte[0].phy[0].shaper  rc3QueueLength:vector  ETV
attr interpolationmode  sample-hold
attr title  "RC-Queue Length (rc3QueueLength)"
attr unit  packets
vector 295  smallNetwork.gateway2.tte[0].phy[0].shaper  rc3QueueSize:vector  ETV
attr interpolationmode  sample-hold
attr title  "RC-Queue Size (rc3QueueSize)"
attr unit  B
vector 296  smallNetwork.gateway2.tte[0].phy[0].shaper  rc4QueueLength:vector  ETV
attr interpolationmode  sample-hold
attr title  "RC-Queue Length (rc4QueueLength)"
attr unit  packets
vector 297  smallNetwork.gateway2.tte[0].phy[0].shaper  rc4QueueSize:vector  ETV
attr interpolationmode  sample-hold
attr title  "RC-Queue Size (rc4QueueSize)"
attr unit  B
vector 298  smallNetwork.gateway2.tte[0].phy[0].shaper  rc5QueueLength:vector  ETV
attr interpolationmode  sample-hold
attr title  "RC-Queue Length (rc5QueueLength)"
attr unit  packets
vector 299  smallNetwork.gateway2.tte[0].phy[0].shaper  rc5QueueSize:vector  ETV
attr interpolationmode  sample-hold
attr title  "RC-Queue Size (rc5QueueSize)"
attr unit  B
vector 300  smallNetwork.gateway2.tte[0].phy[0].shaper  rc6QueueLength:vector  ETV
attr interpolationmode  sample-hold
attr title  "RC-Queue Length (rc6QueueLength)"
attr unit  packets
vector 301  smallNetwork.gateway2.tte[0].phy[0].shaper  rc6QueueSize:vector  ETV
attr interpolationmode  sample-hold
attr title  "RC-Queue Size (rc6QueueSize)"
attr unit  B
vector 302  smallNetwork.gateway2.tte[0].phy[0].shaper  rc7QueueLength:vector  ETV
attr interpolationmode  sample-hold
attr title  "RC-Queue Length (rc7QueueLength)"
attr unit  packets
vector 303  smallNetwork.gateway2.tte[0].phy[0].shaper  rc7QueueSize:vector  ETV
attr interpolationmode  sample-hold
attr title  "RC-Queue Size (rc7QueueSize)"
attr unit  B
vector 304  smallNetwork.gateway2.tte[0].phy[0].shaper  rc8QueueLength:vector  ETV
attr interpolationmode  sample-hold
attr title  "RC-Queue Length (rc8QueueLength)"
attr unit  packets
vector 305  smallNetwork.gateway2.tte[0].phy[0].shaper  rc8QueueSize:vector  ETV
attr interpolationmode  sample-hold
attr title  "RC-Queue Size (rc8QueueSize)"
attr unit  B
vector 306  smallNetwork.gateway2.tte[0].phy[0].shaper  rc9QueueLength:vector  ETV
attr interpolationmode  sample-hold
attr title  "RC-Queue Length (rc9QueueLength)"
attr unit  packets
vector 307  smallNetwork.gateway2.tte[0].phy[0].shaper  rc9QueueSize:vector  ETV
attr interpolationmode  sample-hold
attr title  "RC-Queue Size (rc9QueueSize)"
attr unit  B
vector 80  smallNetwork.gateway2.tte[0].phy[0].shaper  pcfQueueLength:vector  ETV
attr interpolationmode  sample-hold
attr title  "PCF-Queue Length, vector"
attr unit  packets
vector 81  smallNetwork.gateway2.tte[0].phy[0].shaper  pcfQueueSize:vector  ETV
attr interpolationmode  sample-hold
attr title  "BE-Queue Size, vector"
attr unit  B
vector 82  smallNetwork.gateway2.tte[0].phy[0].shaper  ttQueueLength:vector  ETV
attr interpolationmode  sample-hold
attr title  "TT-Queue Length, vector"
attr unit  packets
vector 308  smallNetwork.switch1.phy[0].shaper  q0QueueLength:vector  ETV
attr interpolationmode  sample-hold
attr title  "Q-Queue Length (q0QueueLength)"
vector 309  smallNetwork.switch1.phy[0].shaper  q0QueueSize:vector  ETV
attr interpolationmode  sample-hold
attr title  "Q-Queue Size (q0QueueSize)"
attr unit  B
vector 310  smallNetwork.switch1.phy[0].shaper  q1QueueLength:vector  ETV
attr interpolationmode  sample-hold
attr title  "Q-Queue Length (q1QueueLength)"
vector 311  smallNetwork.switch1.phy[0].shaper  q1QueueSize:vector  ETV
attr interpolationmode  sample-hold
attr title  "Q-Queue Size (q1QueueSize)"
attr unit  B
vector 312  smallNetwork.switch1.phy[0].shaper  q2QueueLength:vector  ETV
attr interpolationmode  sample-hold
attr title  "Q-Queue Length (q2QueueLength)"
vector 313  smallNetwork.switch1.phy[0].shaper  q2QueueSize:vector  ETV
attr interpolationmode  sample-hold
attr title  "Q-Queue Size (q2QueueSize)"
attr unit  B
vector 314  smallNetwork.switch1.phy[0].shaper  q3QueueLength:vector  ETV
attr interpolationmode  sample-hold
attr title  "Q-Queue Length (q3QueueLength)"
vector 315  smallNetwork.switch1.phy[0].shaper  q3QueueSize:vector  ETV
attr interpolationmode  sample-hold
attr title  "Q-Queue Size (q3QueueSize)"
attr unit  B
vector 316  smallNetwork.switch1.phy[0].shaper  q4QueueLength:vector  ETV
attr interpolationmode  sample-hold
attr title  "Q-Queue Length (q4QueueLength)"
vector 317  smallNetwork.switch1.phy[0].shaper  q4QueueSize:vector  ETV
attr interpolationmode  sample-hold
attr title  "Q-Queue Size (q4QueueSize)"
attr unit  B
vector 318  smallNetwork.switch1.phy[0].shaper  q5QueueLength:vector  ETV
attr interpolationmode  sample-hold
attr title  "Q-Queue Length (q5QueueLength)"
vector 319  smallNetwork.switch1.phy[0].shaper  q5QueueSize:vector  ETV
attr interpolationmode  sample-hold
attr title  "Q-Queue Size (q5QueueSize)"
attr unit  B
vector 320  smallNetwork.switch1.phy[0].shaper  q6QueueLength:vector  ETV
attr interpolationmode  sample-hold
attr title  "Q-Queue Length (q6QueueLength)"
vector 321  smallNetwork.switch1.phy[0].shaper  q6QueueSize:vector  ETV
attr interpolationmode  sample-hold
attr title  "Q-Queue Size (q6QueueSize)"
attr unit  B
vector 322  smallNetwork.switch1.phy[0].shaper  q7QueueLength:vector  ETV
attr interpolationmode  sample-hold
attr title  "Q-Queue Length (q7QueueLength)"
vector 323  smallNetwork.switch1.phy[0].shaper  q7QueueSize:vector  ETV
attr interpolationmode  sample-hold
attr title  "Q-Queue Size (q7QueueSize)"
attr unit  B
vector 324  smallNetwork.switch1.phy[0].shaper  rc0QueueLength:vector  ETV
attr interpolationmode  sample-hold
attr title  "RC-Queue Length (rc0QueueLength)"
attr unit  packets
vector 325  smallNetwork.switch1.phy[0].shaper  rc0QueueSize:vector  ETV
attr interpolationmode  sample-hold
attr title  "RC-Queue Size (rc0QueueSize)"
attr unit  B
vector 326  smallNetwork.switch1.phy[0].shaper  rc1QueueLength:vector  ETV
attr interpolationmode  sample-hold
attr title  "RC-Queue Length (rc1QueueLength)"
attr unit  packets
vector 327  smallNetwork.switch1.phy[0].shaper  rc1QueueSize:vector  ETV
attr interpolationmode  sample-hold
attr title  "RC-Queue Size (rc1QueueSize)"
attr unit  B
vector 328  smallNetwork.switch1.phy[0].shaper  rc2QueueLength:vector  ETV
attr interpolationmode  sample-hold
attr title  "RC-Queue Length (rc2QueueLength)"
attr unit  packets
vector 329  smallNetwork.switch1.phy[0].shaper  rc2QueueSize:vector  ETV
attr interpolationmode  sample-hold
attr title  "RC-Queue Size (rc2QueueSize)"
attr unit  B
vector 330  smallNetwork.switch1.phy[0].shaper  rc3QueueLength:vector  ETV
attr interpolationmode  sample-hold
attr title  "RC-Queue Length (rc3QueueLength)"
attr unit  packets
vector 331  smallNetwork.switch1.phy[0].shaper  rc3QueueSize:vector  ETV
attr interpolationmode  sample-hold
attr title  "RC-Queue Size (rc3QueueSize)"
attr unit  B
vector 332  smallNetwork.switch1.phy[0].shaper  rc4QueueLength:vector  ETV
attr interpolationmode  sample-hold
attr title  "RC-Queue Length (rc4QueueLength)"
attr unit  packets
vector 333  smallNetwork.switch1.phy[0].shaper  rc4QueueSize:vector  ETV
attr interpolationmode  sample-hold
attr title  "RC-Queue Size (rc4QueueSize)"
attr unit  B
vector 334  smallNetwork.switch1.phy[0].shaper  rc5QueueLength:vector  ETV
attr interpolationmode  sample-hold
attr title  "RC-Queue Length (rc5QueueLength)"
attr unit  packets
vector 335  smallNetwork.switch1.phy[0].shaper  rc5QueueSize:vector  ETV
attr interpolationmode  sample-hold
attr title  "RC-Queue Size (rc5QueueSize)"
attr unit  B
vector 336  smallNetwork.switch1.phy[0].shaper  rc6QueueLength:vector  ETV
attr interpolationmode  sample-hold
attr title  "RC-Queue Length (rc6QueueLength)"
attr unit  packets
vector 337  smallNetwork.switch1.phy[0].shaper  rc6QueueSize:vector  ETV
attr interpolationmode  sample-hold
attr title  "RC-Queue Size (rc6QueueSize)"
attr unit  B
vector 338  smallNetwork.switch1.phy[0].shaper  rc7QueueLength:vector  ETV
attr interpolationmode  sample-hold
attr title  "RC-Queue Length (rc7QueueLength)"
attr unit  packets
vector 339  smallNetwork.switch1.phy[0].shaper  rc7QueueSize:vector  ETV
attr interpolationmode  sample-hold
attr title  "RC-Queue Size (rc7QueueSize)"
attr unit  B
vector 340  smallNetwork.switch1.phy[0].shaper  rc8QueueLength:vector  ETV
attr interpolationmode  sample-hold
attr title  "RC-Queue Length (rc8QueueLength)"
attr unit  packets
vector 341  smallNetwork.switch1.phy[0].shaper  rc8QueueSize:vector  ETV
attr interpolationmode  sample-hold
attr title  "RC-Queue Size (rc8QueueSize)"
attr unit  B
vector 342  smallNetwork.switch1.phy[0].shaper  rc9QueueLength:vector  ETV
attr interpolationmode  sample-hold
attr title  "RC-Queue Length (rc9QueueLength)"
attr unit  packets
vector 343  smallNetwork.switch1.phy[0].shaper  rc9QueueSize:vector  ETV
attr interpolationmode  sample-hold
attr title  "RC-Queue Size (rc9QueueSize)"
attr unit  B
vector 174  smallNetwork.switch1.phy[0].shaper  pcfQueueLength:vector  ETV
attr interpolationmode  sample-hold
attr title  "PCF-Queue Length, vector"
attr unit  packets
vector 175  smallNetwork.switch1.phy[0].shaper  pcfQueueSize:vector  ETV
attr interpolationmode  sample-hold
attr title  "BE-Queue Size, vector"
attr unit  B
vector 176  smallNetwork.switch1.phy[0].shaper  ttQueueLength:vector  ETV
attr interpolationmode  sample-hold
attr title  "TT-Queue Length, vector"
attr unit  packets
vector 344  smallNetwork.switch1.phy[1].shaper  q0QueueLength:vector  ETV
attr interpolationmode  sample-hold
attr title  "Q-Queue Length (q0QueueLength)"
vector 345  smallNetwork.switch1.phy[1].shaper  q0QueueSize:vector  ETV
attr interpolationmode  sample-hold
attr title  "Q-Queue Size (q0QueueSize)"
attr unit  B
vector 346  smallNetwork.switch1.phy[1].shaper  q1QueueLength:vector  ETV
attr interpolationmode  sample-hold
attr title  "Q-Queue Length (q1QueueLength)"
vector 347  smallNetwork.switch1.phy[1].shaper  q1QueueSize:vector  ETV
attr interpolationmode  sample-hold
attr title  "Q-Queue Size (q1QueueSize)"
attr unit  B
vector 348  smallNetwork.switch1.phy[1].shaper  q2QueueLength:vector  ETV
attr interpolationmode  sample-hold
attr title  "Q-Queue Length (q2QueueLength)"
vector 349  smallNetwork.switch1.phy[1].shaper  q2QueueSize:vector  ETV
attr interpolationmode  sample-hold
attr title  "Q-Queue Size (q2QueueSize)"
attr unit  B
vector 350  smallNetwork.switch1.phy[1].shaper  q3QueueLength:vector  ETV
attr interpolationmode  sample-hold
attr title  "Q-Queue Length (q3QueueLength)"
vector 351  smallNetwork.switch1.phy[1].shaper  q3QueueSize:vector  ETV
attr interpolationmode  sample-hold
attr title  "Q-Queue Size (q3QueueSize)"
attr unit  B
vector 352  smallNetwork.switch1.phy[1].shaper  q4QueueLength:vector  ETV
attr interpolationmode  sample-hold
attr title  "Q-Queue Length (q4QueueLength)"
vector 353  smallNetwork.switch1.phy[1].shaper  q4QueueSize:vector  ETV
attr interpolationmode  sample-hold
attr title  "Q-Queue Size (q4QueueSize)"
attr unit  B
vector 354  smallNetwork.switch1.phy[1].shaper  q5QueueLength:vector  ETV
attr interpolationmode  sample-hold
attr title  "Q-Queue Length (q5QueueLength)"
vector 355  smallNetwork.switch1.phy[1].shaper  q5QueueSize:vector  ETV
attr interpolationmode  sample-hold
attr title  "Q-Queue Size (q5QueueSize)"
attr unit  B
vector 356  smallNetwork.switch1.phy[1].shaper  q6QueueLength:vector  ETV
attr interpolationmode  sample-hold
attr title  "Q-Queue Length (q6QueueLength)"
vector 357  smallNetwork.switch1.phy[1].shaper  q6QueueSize:vector  ETV
attr interpolationmode  sample-hold
attr title  "Q-Queue Size (q6QueueSize)"
attr unit  B
vector 358  smallNetwork.switch1.phy[1].shaper  q7QueueLength:vector  ETV
attr interpolationmode  sample-hold
attr title  "Q-Queue Length (q7QueueLength)"
vector 359  smallNetwork.switch1.phy[1].shaper  q7QueueSize:vector  ETV
attr interpolationmode  sample-hold
attr title  "Q-Queue Size (q7QueueSize)"
attr unit  B
vector 360  smallNetwork.switch1.phy[1].shaper  rc0QueueLength:vector  ETV
attr interpolationmode  sample-hold
attr title  "RC-Queue Length (rc0QueueLength)"
attr unit  packets
vector 361  smallNetwork.switch1.phy[1].shaper  rc0QueueSize:vector  ETV
attr interpolationmode  sample-hold
attr title  "RC-Queue Size (rc0QueueSize)"
attr unit  B
vector 362  smallNetwork.switch1.phy[1].shaper  rc1QueueLength:vector  ETV
attr interpolationmode  sample-hold
attr title  "RC-Queue Length (rc1QueueLength)"
attr unit  packets
vector 363  smallNetwork.switch1.phy[1].shaper  rc1QueueSize:vector  ETV
attr interpolationmode  sample-hold
attr title  "RC-Queue Size (rc1QueueSize)"
attr unit  B
vector 364  smallNetwork.switch1.phy[1].shaper  rc2QueueLength:vector  ETV
attr interpolationmode  sample-hold
attr title  "RC-Queue Length (rc2QueueLength)"
attr unit  packets
vector 365  smallNetwork.switch1.phy[1].shaper  rc2QueueSize:vector  ETV
attr interpolationmode  sample-hold
attr title  "RC-Queue Size (rc2QueueSize)"
attr unit  B
vector 366  smallNetwork.switch1.phy[1].shaper  rc3QueueLength:vector  ETV
attr interpolationmode  sample-hold
attr title  "RC-Queue Length (rc3QueueLength)"
attr unit  packets
vector 367  smallNetwork.switch1.phy[1].shaper  rc3QueueSize:vector  ETV
attr interpolationmode  sample-hold
attr title  "RC-Queue Size (rc3QueueSize)"
attr unit  B
vector 368  smallNetwork.switch1.phy[1].shaper  rc4QueueLength:vector  ETV
attr interpolationmode  sample-hold
attr title  "RC-Queue Length (rc4QueueLength)"
attr unit  packets
vector 369  smallNetwork.switch1.phy[1].shaper  rc4QueueSize:vector  ETV
attr interpolationmode  sample-hold
attr title  "RC-Queue Size (rc4QueueSize)"
attr unit  B
vector 370  smallNetwork.switch1.phy[1].shaper  rc5QueueLength:vector  ETV
attr interpolationmode  sample-hold
attr title  "RC-Queue Length (rc5QueueLength)"
attr unit  packets
vector 371  smallNetwork.switch1.phy[1].shaper  rc5QueueSize:vector  ETV
attr interpolationmode  sample-hold
attr title  "RC-Queue Size (rc5QueueSize)"
attr unit  B
vector 372  smallNetwork.switch1.phy[1].shaper  rc6QueueLength:vector  ETV
attr interpolationmode  sample-hold
attr title  "RC-Queue Length (rc6QueueLength)"
attr unit  packets
vector 373  smallNetwork.switch1.phy[1].shaper  rc6QueueSize:vector  ETV
attr interpolationmode  sample-hold
attr title  "RC-Queue Size (rc6QueueSize)"
attr unit  B
vector 374  smallNetwork.switch1.phy[1].shaper  rc7QueueLength:vector  ETV
attr interpolationmode  sample-hold
attr title  "RC-Queue Length (rc7QueueLength)"
attr unit  packets
vector 375  smallNetwork.switch1.phy[1].shaper  rc7QueueSize:vector  ETV
attr interpolationmode  sample-hold
attr title  "RC-Queue Size (rc7QueueSize)"
attr unit  B
vector 376  smallNetwork.switch1.phy[1].shaper  rc8QueueLength:vector  ETV
attr interpolationmode  sample-hold
attr title  "RC-Queue Length (rc8QueueLength)"
attr unit  packets
vector 377  smallNetwork.switch1.phy[1].shaper  rc8QueueSize:vector  ETV
attr interpolationmode  sample-hold
attr title  "RC-Queue Size (rc8QueueSize)"
attr unit  B
vector 378  smallNetwork.switch1.phy[1].shaper  rc9QueueLength:vector  ETV
attr interpolationmode  sample-hold
attr title  "RC-Queue Length (rc9QueueLength)"
attr unit  packets
vector 379  smallNetwork.switch1.phy[1].shaper  rc9QueueSize:vector  ETV
attr interpolationmode  sample-hold
attr title  "RC-Queue Size (rc9QueueSize)"
attr unit  B
vector 193  smallNetwork.switch1.phy[1].shaper  pcfQueueLength:vector  ETV
attr interpolationmode  sample-hold
attr title  "PCF-Queue Length, vector"
attr unit  packets
vector 194  smallNetwork.switch1.phy[1].shaper  pcfQueueSize:vector  ETV
attr interpolationmode  sample-hold
attr title  "BE-Queue Size, vector"
attr unit  B
vector 195  smallNetwork.switch1.phy[1].shaper  ttQueueLength:vector  ETV
attr interpolationmode  sample-hold
attr title  "TT-Queue Length, vector"
attr unit  packets
vector 16  smallNetwork.gateway1.can[0].canClock  clockDrift:vector  ETV
attr interpolationmode  linear
attr source  clockDrift
attr title  "clockDrift, vector"
attr unit  s
vector 77  smallNetwork.gateway2.can[0].canClock  clockDrift:vector  ETV
attr interpolationmode  linear
attr source  clockDrift
attr title  "clockDrift, vector"
attr unit  s
vector 138  smallNetwork.canNode1.canClock  clockDrift:vector  ETV
attr interpolationmode  linear
attr source  clockDrift
attr title  "clockDrift, vector"
attr unit  s
vector 130  smallNetwork.canNode1.bufferOut  rxPk:vector(packetBytes)  ETV
attr interpolationmode  none
attr source  rxPk
attr title  "RX Packets, vector(packetBytes)"
vector 132  smallNetwork.canNode1.bufferOut  length:vector  ETV
attr interpolationmode  sample-hold
attr source  length
attr title  "Queue Length, vector"
attr unit  packets
vector 133  smallNetwork.canNode1.bufferOut  size:vector  ETV
attr interpolationmode  sample-hold
attr source  size
attr title  "Queue Size, vector"
attr unit  B
vector 234  smallNetwork.canbus1.canBusLogic  arbitrationLength:vector  ETV
attr interpolationmode  sample-hold
attr source  arbitrationLength
attr title  "Arbitration Length, vector"
attr unit  packets
vector 131  smallNetwork.canNode1.bufferOut  txPk:vector(packetBytes)  ETV
attr interpolationmode  none
attr source  txPk
attr title  "TX Packets, vector(packetBytes)"
vector 0  smallNetwork.gateway1.can[0].canNodePort.canPortInput  rxDFLatency:vector  ETV
attr interpolationmode  linear
attr source  timestampAge(rxDF)
attr title  "End-to-end latency of data frames, vector"
attr unit  s
vector 2  smallNetwork.gateway1.can[0].canNodePort.canPortInput  rxDFPayloadLatency:vector  ETV
attr interpolationmode  linear
attr source  timestampAge(rxDFPayload)
attr title  "End-to-end latency of data frame payload, vector"
attr unit  s
vector 4  smallNetwork.gateway1.can[0].bufferIn[0]  rxPk:vector(packetBytes)  ETV
attr interpolationmode  none
attr source  rxPk
attr title  "RX Packets, vector(packetBytes)"
vector 5  smallNetwork.gateway1.can[0].bufferIn[0]  txPk:vector(packetBytes)  ETV
attr interpolationmode  none
attr source  txPk
attr title  "TX Packets, vector(packetBytes)"
vector 59  smallNetwork.gateway1.tte[0].bgOut  length:vector  ETV
attr interpolationmode  sample-hold
attr source  length
attr title  "Queue Length, vector"
attr unit  packets
vector 60  smallNetwork.gateway1.tte[0].bgOut  size:vector  ETV
attr interpolationmode  sample-hold
attr source  size
attr title  "Queue Size, vector"
attr unit  B
vector 57  smallNetwork.gateway1.tte[0].bgOut  txBytes:vector(packetBytes)  ETV
attr interpolationmode  none
attr source  txPk
attr title  "Transmitted Bytes, vector(packetBytes)"
attr unit  B
vector 58  smallNetwork.gateway1.tte[0].bgOut  txLatency:vector  ETV
attr interpolationmode  none
attr source  messageAge(txPk)
attr title  "End-to-end latency (transmitted), vector"
attr unit  s
vector 32  smallNetwork.gateway1.tte[0].phy[0].mac  rxPkFromHL:vector(packetBytes)  ETV
attr interpolationmode  none
attr source  rxPkFromHL
attr title  "packet bytes from higher layer, vector(packetBytes)"
vector 183  smallNetwork.switch1.phy[0].mac  rxPkOk:vector(packetBytes)  ETV
attr interpolationmode  none
attr source  rxPkOk
attr title  "packets received OK, vector(packetBytes)"
vector 184  smallNetwork.switch1.phy[0].mac  passedUpPk:vector(packetBytes)  ETV
attr interpolationmode  none
attr source  packetSentToUpper
attr title  "packets passed to higher layer, vector(packetBytes)"
vector 27  smallNetwork.gateway1.tte[0].phy[0].mac  txPk:vector(packetBytes)  ETV
attr interpolationmode  none
attr source  txPk
attr title  "packets transmitted, vector(packetBytes)"
vector 181  smallNetwork.switch1.phy[0].inControl  rxLatency:vector  ETV
attr interpolationmode  none
attr source  messageAge(rxPk)
attr title  "End-to-end latency (received), vector"
attr unit  s
vector 40  smallNetwork.gateway1.tte[0].avbABuffer[0]  credit:vector  ETV
attr ""  ""
attr interpolationmode  linear
attr source  credit
attr title  "Credit, vector"
attr unit  b
vector 45  smallNetwork.gateway1.tte[0].avbBBuffer[0]  credit:vector  ETV
attr ""  ""
attr interpolationmode  linear
attr source  credit
attr title  "Credit, vector"
attr unit  b
vector 206  smallNetwork.switch1.phy[1].mac  rxPkFromHL:vector(packetBytes)  ETV
attr interpolationmode  none
attr source  rxPkFromHL
attr title  "packet bytes from higher layer, vector(packetBytes)"
vector 89  smallNetwork.gateway2.tte[0].phy[0].mac  rxPkOk:vector(packetBytes)  ETV
attr interpolationmode  none
attr source  rxPkOk
attr title  "packets received OK, vector(packetBytes)"
vector 90  smallNetwork.gateway2.tte[0].phy[0].mac  passedUpPk:vector(packetBytes)  ETV
attr interpolationmode  none
attr source  packetSentToUpper
attr title  "packets passed to higher layer, vector(packetBytes)"
vector 201  smallNetwork.switch1.phy[1].mac  txPk:vector(packetBytes)  ETV
attr interpolationmode  none
attr source  txPk
attr title  "packets transmitted, vector(packetBytes)"
vector 87  smallNetwork.gateway2.tte[0].phy[0].inControl  rxLatency:vector  ETV
attr interpolationmode  none
attr source  messageAge(rxPk)
attr title  "End-to-end latency (received), vector"
attr unit  s
vector 116  smallNetwork.gateway2.tte[0].bgIn  length:vector  ETV
attr interpolationmode  sample-hold
attr source  length
attr title  "Queue Length, vector"
attr unit  packets
vector 117  smallNetwork.gateway2.tte[0].bgIn  size:vector  ETV
attr interpolationmode  sample-hold
attr source  size
attr title  "Queue Size, vector"
attr unit  B
vector 219  smallNetwork.switch1.avbABuffer[1]  credit:vector  ETV
attr ""  ""
attr interpolationmode  linear
attr source  credit
attr title  "Credit, vector"
attr unit  b
vector 229  smallNetwork.switch1.avbBBuffer[1]  credit:vector  ETV
attr ""  ""
attr interpolationmode  linear
attr source  credit
attr title  "Credit, vector"
attr unit  b
0	36186 72 24 92 0.000224 0.000668 3 0.000224 0.000668 0.001338 6.95316e-007
2	36258 72 24 92 0.000224 0.000668 3 0.000224 0.000668 0.001338 6.95316e-007
4	36330 54 26 93 0.000224 0.000668 3 14 14 42 588
5	36384 54 26 93 0.000224 0.000668 3 14 14 42 588
16	36438 10 0 0 0 0 1 0 0 0 0
19	36448 10 0 0 0 0 1 0 0 0 0
20	36458 10 0 0 0 0 1 0 0 0 0
21	36468 10 0 0 0 0 1 0 0 0 0
27	36478 64 45 104 0.00022976 0.00067376 3 64 64 192 12288
32	36542 58 43 102 0.000224 0.000668 3 64 64 192 12288
40	36600 61 47 106 0.00023072 0.00067472 3 0 0 0 0
45	36661 61 47 106 0.00023072 0.00067472 3 0 0 0 0
57	36722 57 40 99 0.000224 0.000668 3 64 64 192 12288
58	36779 54 40 99 0.000224 0.000668 3 0 0 0 0
59	36833 108 40 99 0.000224 0.000668 6 0 1 3 3
60	36941 111 40 99 0.000224 0.000668 6 0 64 192 12288
77	37052 10 0 0 0 0 1 0 0 0 0
80	37062 10 0 0 0 0 1 0 0 0 0
81	37072 10 0 0 0 0 1 0 0 0 0
82	37082 10 0 0 0 0 1 0 0 0 0
87	37092 88 53 112 0.00024352 0.00068752 3 1.952e-005 1.952e-005 5.856e-005 1.1430912e-009
89	37180 64 51 110 0.00024352 0.00068752 3 64 64 192 12288
90	37244 64 51 110 0.00024352 0.00068752 3 64 64 192 12288
116	37308 64 55 114 0.00024352 0.00068752 3 1 3 6 14
117	37372 69 55 114 0.00024352 0.00068752 3 64 192 384 57344
130	37441 78 10 12 0 0 6 14 14 84 1176
131	37519 60 13 57 0.000002 0.000446 3 14 14 42 588
132	37579 93 10 91 0 0.000668 6 0 3 9 19
133	37672 98 10 91 0 0.000668 6 0 42 126 3724
138	37770 66 0 9 0 0 6 0 0 0 0
174	37836 11 0 0 0 0 1 0 0 0 0
175	37847 11 0 0 0 0 1 0 0 0 0
176	37858 11 0 0 0 0 1 0 0 0 0
181	37869 88 46 105 0.00022976 0.00067376 3 5.76e-006 5.76e-006 1.728e-005 9.95328e-011
183	37957 67 44 103 0.00022976 0.00067376 3 64 64 192 12288
184	38024 67 44 103 0.00022976 0.00067376 3 64 64 192 12288
193	38091 11 0 0 0 0 1 0 0 0 0
194	38102 11 0 0 0 0 1 0 0 0 0
195	38113 11 0 0 0 0 1 0 0 0 0
201	38124 67 52 111 0.00024352 0.00068752 3 64 64 192 12288
206	38191 67 50 109 0.00023776 0.00068176 3 64 64 192 12288
219	38258 64 56 115 0.00024448 0.00068848 3 0 0 0 0
229	38322 64 56 115 0.00024448 0.00068848 3 0 0 0 0
234	38386 93 10 91 0 0.000668 6 0 3 9 19
236	38479 11 0 0 0 0 1 0 0 0 0
237	38490 11 0 0 0 0 1 0 0 0 0
238	38501 11 0 0 0 0 1 0 0 0 0
239	38512 11 0 0 0 0 1 0 0 0 0
240	38523 11 0 0 0 0 1 0 0 0 0
241	38534 11 0 0 0 0 1 0 0 0 0
242	38545 11 0 0 0 0 1 0 0 0 0
243	38556 11 0 0 0 0 1 0 0 0 0
244	38567 11 0 0 0 0 1 0 0 0 0
245	38578 11 0 0 0 0 1 0 0 0 0
246	38589 11 0 0 0 0 1 0 0 0 0
247	38600 11 0 0 0 0 1 0 0 0 0
248	38611 11 0 0 0 0 1 0 0 0 0
249	38622 11 0 0 0 0 1 0 0 0 0
250	38633 11 0 0 0 0 1 0 0 0 0
251	38644 11 0 0 0 0 1 0 0 0 0
252	38655 11 0 0 0 0 1 0 0 0 0
253	38666 11 0 0 0 0 1 0 0 0 0
254	38677 11 0 0 0 0 1 0 0 0 0
255	38688 11 0 0 0 0 1 0 0 0 0
256	38699 11 0 0 0 0 1 0 0 0 0
257	38710 11 0 0 0 0 1 0 0 0 0
258	38721 11 0 0 0 0 1 0 0 0 0
259	38732 11 0 0 0 0 1 0 0 0 0
260	38743 11 0 0 0 0 1 0 0 0 0
261	38754 11 0 0 0 0 1 0 0 0 0
262	38765 11 0 0 0 0 1 0 0 0 0
263	38776 11 0 0 0 0 1 0 0 0 0
264	38787 11 0 0 0 0 1 0 0 0 0
265	38798 11 0 0 0 0 1 0 0 0 0
266	38809 11 0 0 0 0 1 0 0 0 0
267	38820 11 0 0 0 0 1 0 0 0 0
268	38831 11 0 0 0 0 1 0 0 0 0
269	38842 11 0 0 0 0 1 0 0 0 0
270	38853 11 0 0 0 0 1 0 0 0 0
271	38864 11 0 0 0 0 1 0 0 0 0
272	38875 11 0 0 0 0 1 0 0 0 0
273	38886 11 0 0 0 0 1 0 0 0 0
274	38897 11 0 0 0 0 1 0 0 0 0
275	38908 11 0 0 0 0 1 0 0 0 0
276	38919 11 0 0 0 0 1 0 0 0 0
277	38930 11 0 0 0 0 1 0 0 0 0
278	38941 11 0 0 0 0 1 0 0 0 0
279	38952 11 0 0 0 0 1 0 0 0 0
280	38963 11 0 0 0 0 1 0 0 0 0
281	38974 11 0 0 0 0 1 0 0 0 0
282	38985 11 0 0 0 0 1 0 0 0 0
283	38996 11 0 0 0 0 1 0 0 0 0
284	39007 11 0 0 0 0 1 0 0 0 0
285	39018 11 0 0 0 0 1 0 0 0 0
286	39029 11 0 0 0 0 1 0 0 0 0
287	39040 11 0 0 0 0 1 0 0 0 0
288	39051 11 0 0 0 0 1 0 0 0 0
289	39062 11 0 0 0 0 1 0 0 0 0
290	39073 11 0 0 0 0 1 0 0 0 0
291	39084 11 0 0 0 0 1 0 0 0 0
292	39095 11 0 0 0 0 1 0 0 0 0
293	39106 11 0 0 0 0 1 0 0 0 0
294	39117 11 0 0 0 0 1 0 0 0 0
295	39128 11 0 0 0 0 1 0 0 0 0
296	39139 11 0 0 0 0 1 0 0 0 0
297	39150 11 0 0 0 0 1 0 0 0 0
298	39161 11 0 0 0 0 1 0 0 0 0
299	39172 11 0 0 0 0 1 0 0 0 0
300	39183 11 0 0 0 0 1 0 0 0 0
301	39194 11 0 0 0 0 1 0 0 0 0
302	39205 11 0 0 0 0 1 0 0 0 0
303	39216 11 0 0 0 0 1 0 0 0 0
304	39227 11 0 0 0 0 1 0 0 0 0
305	39238 11 0 0 0 0 1 0 0 0 0
306	39249 11 0 0 0 0 1 0 0 0 0
307	39260 11 0 0 0 0 1 0 0 0 0
308	39271 11 0 0 0 0 1 0 0 0 0
309	39282 11 0 0 0 0 1 0 0 0 0
310	39293 11 0 0 0 0 1 0 0 0 0
311	39304 11 0 0 0 0 1 0 0 0 0
312	39315 11 0 0 0 0 1 0 0 0 0
313	39326 11 0 0 0 0 1 0 0 0 0
314	39337 11 0 0 0 0 1 0 0 0 0
315	39348 11 0 0 0 0 1 0 0 0 0
316	39359 11 0 0 0 0 1 0 0 0 0
317	39370 11 0 0 0 0 1 0 0 0 0
318	39381 11 0 0 0 0 1 0 0 0 0
319	39392 11 0 0 0 0 1 0 0 0 0
320	39403 11 0 0 0 0 1 0 0 0 0
321	39414 11 0 0 0 0 1 0 0 0 0
322	39425 11 0 0 0 0 1 0 0 0 0
323	39436 11 0 0 0 0 1 0 0 0 0
324	39447 11 0 0 0 0 1 0 0 0 0
325	39458 11 0 0 0 0 1 0 0 0 0
326	39469 11 0 0 0 0 1 0 0 0 0
327	39480 11 0 0 0 0 1 0 0 0 0
328	39491 11 0 0 0 0 1 0 0 0 0
329	39502 11 0 0 0 0 1 0 0 0 0
330	39513 11 0 0 0 0 1 0 0 0 0
331	39524 11 0 0 0 0 1 0 0 0 0
332	39535 11 0 0 0 0 1 0 0 0 0
333	39546 11 0 0 0 0 1 0 0 0 0
334	39557 11 0 0 0 0 1 0 0 0 0
335	39568 11 0 0 0 0 1 0 0 0 0
336	39579 11 0 0 0 0 1 0 0 0 0
337	39590 11 0 0 0 0 1 0 0 0 0
338	39601 11 0 0 0 0 1 0 0 0 0
339	39612 11 0 0 0 0 1 0 0 0 0
340	39623 11 0 0 0 0 1 0 0 0 0
341	39634 11 0 0 0 0 1 0 0 0 0
342	39645 11 0 0 0 0 1 0 0 0 0
343	39656 11 0 0 0 0 1 0 0 0 0
344	39667 11 0 0 0 0 1 0 0 0 0
345	39678 11 0 0 0 0 1 0 0 0 0
346	39689 11 0 0 0 0 1 0 0 0 0
347	39700 11 0 0 0 0 1 0 0 0 0
348	39711 11 0 0 0 0 1 0 0 0 0
349	39722 11 0 0 0 0 1 0 0 0 0
350	39733 11 0 0 0 0 1 0 0 0 0
351	39744 11 0 0 0 0 1 0 0 0 0
352	39755 11 0 0 0 0 1 0 0 0 0
353	39766 11 0 0 0 0 1 0 0 0 0
354	39777 11 0 0 0 0 1 0 0 0 0
355	39788 11 0 0 0 0 1 0 0 0 0
356	39799 11 0 0 0 0 1 0 0 0 0
357	39810 11 0 0 0 0 1 0 0 0 0
358	39821 11 0 0 0 0 1 0 0 0 0
359	39832 11 0 0 0 0 1 0 0 0 0
360	39843 11 0 0 0 0 1 0 0 0 0
361	39854 11 0 0 0 0 1 0 0 0 0
362	39865 11 0 0 0 0 1 0 0 0 0
363	39876 11 0 0 0 0 1 0 0 0 0
364	39887 11 0 0 0 0 1 0 0 0 0
365	39898 11 0 0 0 0 1 0 0 0 0
366	39909 11 0 0 0 0 1 0 0 0 0
367	39920 11 0 0 0 0 1 0 0 0 0
368	39931 11 0 0 0 0 1 0 0 0 0
369	39942 11 0 0 0 0 1 0 0 0 0
370	39953 11 0 0 0 0 1 0 0 0 0
371	39964 11 0 0 0 0 1 0 0 0 0
372	39975 11 0 0 0 0 1 0 0 0 0
373	39986 11 0 0 0 0 1 0 0 0 0
374	39997 11 0 0 0 0 1 0 0 0 0
375	40008 11 0 0 0 0 1 0 0 0 0
376	40019 11 0 0 0 0 1 0 0 0 0
377	40030 11 0 0 0 0 1 0 0 0 0
378	40041 11 0 0 0 0 1 0 0 0 0
379	40052 11 0 0 0 0 1 0 0 0 0
