version 2
run General-0-20171109-11:52:57-1552
attr configname General
attr datetime 20171109-11:52:57
attr experiment General
attr inifile omnetpp.ini
attr iterationvars ""
attr iterationvarsf ""
attr measurement ""
attr network small_network
attr processid 1552
attr repetition 0
attr replication #0
attr resultdir results
attr runnumber 0
attr seedset 0
param **.ct_marker 0x03040506
param **.ct_mask -1
param **.node1.phy[*].mac.address "\"0A-00-00-00-00-01\""
param **.node1.qos_broker.destAddress "\"0A-00-00-00-00-02\""
param **.node1.qos_broker.isClient true
param **.node2.phy[*].mac.address "\"0A-00-00-00-00-02\""
param **.node3.phy[*].mac.address "\"0A-00-00-00-00-03\""
param **.precission 500ns
param **.scheduler.oscillator.drift_change uniform(-50ppm,50ppm)
param **.scheduler.oscillator.max_drift 200ppm
param **.scheduler.period[0].cycle_ticks sec_to_tick(5ms)
param **.scheduler.tick 80ns
param **.switch1.phy[0].inControl.ct_incomings "\"vl_100_ctc\""
param **.switch1.phy[1].shaper.AVBHigherPriorityBandwidth 3Mbps
param **.switch1.phy[1].shaper.tt_buffers "\"vl_100\""
param **.switch1.phy[2].shaper.AVBHigherPriorityBandwidth 3Mbps
param **.switch1.phy[2].shaper.tt_buffers "\"vl_100\""
param **.switch1.vl_100.ct_id 100
param **.switch1.vl_100.destination_gates "\"phy[1].TTin, phy[2].TTin\""
param **.switch1.vl_100.sendWindowStart sec_to_tick(1024.960us)
param **.switch1.vl_100_ctc.permanence_pit sec_to_tick(1015.120us)
param **.switch1.vl_100_ctc.receive_window_end sec_to_tick(1015.120us)
param **.switch1.vl_100_ctc.receive_window_start sec_to_tick(995.120us)

vector 239  small_network.node1.phy[0].shaper  q0QueueLength:vector  ETV
attr interpolationmode  sample-hold
attr title  "Q-Queue Length (q0QueueLength)"
vector 240  small_network.node1.phy[0].shaper  q0QueueSize:vector  ETV
attr interpolationmode  sample-hold
attr title  "Q-Queue Size (q0QueueSize)"
attr unit  B
vector 241  small_network.node1.phy[0].shaper  q1QueueLength:vector  ETV
attr interpolationmode  sample-hold
attr title  "Q-Queue Length (q1QueueLength)"
vector 242  small_network.node1.phy[0].shaper  q1QueueSize:vector  ETV
attr interpolationmode  sample-hold
attr title  "Q-Queue Size (q1QueueSize)"
attr unit  B
vector 243  small_network.node1.phy[0].shaper  q2QueueLength:vector  ETV
attr interpolationmode  sample-hold
attr title  "Q-Queue Length (q2QueueLength)"
vector 244  small_network.node1.phy[0].shaper  q2QueueSize:vector  ETV
attr interpolationmode  sample-hold
attr title  "Q-Queue Size (q2QueueSize)"
attr unit  B
vector 245  small_network.node1.phy[0].shaper  q3QueueLength:vector  ETV
attr interpolationmode  sample-hold
attr title  "Q-Queue Length (q3QueueLength)"
vector 246  small_network.node1.phy[0].shaper  q3QueueSize:vector  ETV
attr interpolationmode  sample-hold
attr title  "Q-Queue Size (q3QueueSize)"
attr unit  B
vector 247  small_network.node1.phy[0].shaper  q4QueueLength:vector  ETV
attr interpolationmode  sample-hold
attr title  "Q-Queue Length (q4QueueLength)"
vector 248  small_network.node1.phy[0].shaper  q4QueueSize:vector  ETV
attr interpolationmode  sample-hold
attr title  "Q-Queue Size (q4QueueSize)"
attr unit  B
vector 249  small_network.node1.phy[0].shaper  q5QueueLength:vector  ETV
attr interpolationmode  sample-hold
attr title  "Q-Queue Length (q5QueueLength)"
vector 250  small_network.node1.phy[0].shaper  q5QueueSize:vector  ETV
attr interpolationmode  sample-hold
attr title  "Q-Queue Size (q5QueueSize)"
attr unit  B
vector 251  small_network.node1.phy[0].shaper  q6QueueLength:vector  ETV
attr interpolationmode  sample-hold
attr title  "Q-Queue Length (q6QueueLength)"
vector 252  small_network.node1.phy[0].shaper  q6QueueSize:vector  ETV
attr interpolationmode  sample-hold
attr title  "Q-Queue Size (q6QueueSize)"
attr unit  B
vector 253  small_network.node1.phy[0].shaper  q7QueueLength:vector  ETV
attr interpolationmode  sample-hold
attr title  "Q-Queue Length (q7QueueLength)"
vector 254  small_network.node1.phy[0].shaper  q7QueueSize:vector  ETV
attr interpolationmode  sample-hold
attr title  "Q-Queue Size (q7QueueSize)"
attr unit  B
vector 255  small_network.node1.phy[0].shaper  rc0QueueLength:vector  ETV
attr interpolationmode  sample-hold
attr title  "RC-Queue Length (rc0QueueLength)"
attr unit  packets
vector 256  small_network.node1.phy[0].shaper  rc0QueueSize:vector  ETV
attr interpolationmode  sample-hold
attr title  "RC-Queue Size (rc0QueueSize)"
attr unit  B
vector 257  small_network.node1.phy[0].shaper  rc1QueueLength:vector  ETV
attr interpolationmode  sample-hold
attr title  "RC-Queue Length (rc1QueueLength)"
attr unit  packets
vector 258  small_network.node1.phy[0].shaper  rc1QueueSize:vector  ETV
attr interpolationmode  sample-hold
attr title  "RC-Queue Size (rc1QueueSize)"
attr unit  B
vector 259  small_network.node1.phy[0].shaper  rc2QueueLength:vector  ETV
attr interpolationmode  sample-hold
attr title  "RC-Queue Length (rc2QueueLength)"
attr unit  packets
vector 260  small_network.node1.phy[0].shaper  rc2QueueSize:vector  ETV
attr interpolationmode  sample-hold
attr title  "RC-Queue Size (rc2QueueSize)"
attr unit  B
vector 261  small_network.node1.phy[0].shaper  rc3QueueLength:vector  ETV
attr interpolationmode  sample-hold
attr title  "RC-Queue Length (rc3QueueLength)"
attr unit  packets
vector 262  small_network.node1.phy[0].shaper  rc3QueueSize:vector  ETV
attr interpolationmode  sample-hold
attr title  "RC-Queue Size (rc3QueueSize)"
attr unit  B
vector 263  small_network.node1.phy[0].shaper  rc4QueueLength:vector  ETV
attr interpolationmode  sample-hold
attr title  "RC-Queue Length (rc4QueueLength)"
attr unit  packets
vector 264  small_network.node1.phy[0].shaper  rc4QueueSize:vector  ETV
attr interpolationmode  sample-hold
attr title  "RC-Queue Size (rc4QueueSize)"
attr unit  B
vector 265  small_network.node1.phy[0].shaper  rc5QueueLength:vector  ETV
attr interpolationmode  sample-hold
attr title  "RC-Queue Length (rc5QueueLength)"
attr unit  packets
vector 266  small_network.node1.phy[0].shaper  rc5QueueSize:vector  ETV
attr interpolationmode  sample-hold
attr title  "RC-Queue Size (rc5QueueSize)"
attr unit  B
vector 267  small_network.node1.phy[0].shaper  rc6QueueLength:vector  ETV
attr interpolationmode  sample-hold
attr title  "RC-Queue Length (rc6QueueLength)"
attr unit  packets
vector 268  small_network.node1.phy[0].shaper  rc6QueueSize:vector  ETV
attr interpolationmode  sample-hold
attr title  "RC-Queue Size (rc6QueueSize)"
attr unit  B
vector 269  small_network.node1.phy[0].shaper  rc7QueueLength:vector  ETV
attr interpolationmode  sample-hold
attr title  "RC-Queue Length (rc7QueueLength)"
attr unit  packets
vector 270  small_network.node1.phy[0].shaper  rc7QueueSize:vector  ETV
attr interpolationmode  sample-hold
attr title  "RC-Queue Size (rc7QueueSize)"
attr unit  B
vector 271  small_network.node1.phy[0].shaper  rc8QueueLength:vector  ETV
attr interpolationmode  sample-hold
attr title  "RC-Queue Length (rc8QueueLength)"
attr unit  packets
vector 272  small_network.node1.phy[0].shaper  rc8QueueSize:vector  ETV
attr interpolationmode  sample-hold
attr title  "RC-Queue Size (rc8QueueSize)"
attr unit  B
vector 273  small_network.node1.phy[0].shaper  rc9QueueLength:vector  ETV
attr interpolationmode  sample-hold
attr title  "RC-Queue Length (rc9QueueLength)"
attr unit  packets
vector 274  small_network.node1.phy[0].shaper  rc9QueueSize:vector  ETV
attr interpolationmode  sample-hold
attr title  "RC-Queue Size (rc9QueueSize)"
attr unit  B
vector 2  small_network.node1.phy[0].shaper  pcfQueueLength:vector  ETV
attr interpolationmode  sample-hold
attr title  "PCF-Queue Length, vector"
attr unit  packets
vector 3  small_network.node1.phy[0].shaper  pcfQueueSize:vector  ETV
attr interpolationmode  sample-hold
attr title  "BE-Queue Size, vector"
attr unit  B
vector 4  small_network.node1.phy[0].shaper  ttQueueLength:vector  ETV
attr interpolationmode  sample-hold
attr title  "TT-Queue Length, vector"
attr unit  packets
vector 275  small_network.node2.phy[0].shaper  q0QueueLength:vector  ETV
attr interpolationmode  sample-hold
attr title  "Q-Queue Length (q0QueueLength)"
vector 276  small_network.node2.phy[0].shaper  q0QueueSize:vector  ETV
attr interpolationmode  sample-hold
attr title  "Q-Queue Size (q0QueueSize)"
attr unit  B
vector 277  small_network.node2.phy[0].shaper  q1QueueLength:vector  ETV
attr interpolationmode  sample-hold
attr title  "Q-Queue Length (q1QueueLength)"
vector 278  small_network.node2.phy[0].shaper  q1QueueSize:vector  ETV
attr interpolationmode  sample-hold
attr title  "Q-Queue Size (q1QueueSize)"
attr unit  B
vector 279  small_network.node2.phy[0].shaper  q2QueueLength:vector  ETV
attr interpolationmode  sample-hold
attr title  "Q-Queue Length (q2QueueLength)"
vector 280  small_network.node2.phy[0].shaper  q2QueueSize:vector  ETV
attr interpolationmode  sample-hold
attr title  "Q-Queue Size (q2QueueSize)"
attr unit  B
vector 281  small_network.node2.phy[0].shaper  q3QueueLength:vector  ETV
attr interpolationmode  sample-hold
attr title  "Q-Queue Length (q3QueueLength)"
vector 282  small_network.node2.phy[0].shaper  q3QueueSize:vector  ETV
attr interpolationmode  sample-hold
attr title  "Q-Queue Size (q3QueueSize)"
attr unit  B
vector 283  small_network.node2.phy[0].shaper  q4QueueLength:vector  ETV
attr interpolationmode  sample-hold
attr title  "Q-Queue Length (q4QueueLength)"
vector 284  small_network.node2.phy[0].shaper  q4QueueSize:vector  ETV
attr interpolationmode  sample-hold
attr title  "Q-Queue Size (q4QueueSize)"
attr unit  B
vector 285  small_network.node2.phy[0].shaper  q5QueueLength:vector  ETV
attr interpolationmode  sample-hold
attr title  "Q-Queue Length (q5QueueLength)"
vector 286  small_network.node2.phy[0].shaper  q5QueueSize:vector  ETV
attr interpolationmode  sample-hold
attr title  "Q-Queue Size (q5QueueSize)"
attr unit  B
vector 287  small_network.node2.phy[0].shaper  q6QueueLength:vector  ETV
attr interpolationmode  sample-hold
attr title  "Q-Queue Length (q6QueueLength)"
vector 288  small_network.node2.phy[0].shaper  q6QueueSize:vector  ETV
attr interpolationmode  sample-hold
attr title  "Q-Queue Size (q6QueueSize)"
attr unit  B
vector 289  small_network.node2.phy[0].shaper  q7QueueLength:vector  ETV
attr interpolationmode  sample-hold
attr title  "Q-Queue Length (q7QueueLength)"
vector 290  small_network.node2.phy[0].shaper  q7QueueSize:vector  ETV
attr interpolationmode  sample-hold
attr title  "Q-Queue Size (q7QueueSize)"
attr unit  B
vector 291  small_network.node2.phy[0].shaper  rc0QueueLength:vector  ETV
attr interpolationmode  sample-hold
attr title  "RC-Queue Length (rc0QueueLength)"
attr unit  packets
vector 292  small_network.node2.phy[0].shaper  rc0QueueSize:vector  ETV
attr interpolationmode  sample-hold
attr title  "RC-Queue Size (rc0QueueSize)"
attr unit  B
vector 293  small_network.node2.phy[0].shaper  rc1QueueLength:vector  ETV
attr interpolationmode  sample-hold
attr title  "RC-Queue Length (rc1QueueLength)"
attr unit  packets
vector 294  small_network.node2.phy[0].shaper  rc1QueueSize:vector  ETV
attr interpolationmode  sample-hold
attr title  "RC-Queue Size (rc1QueueSize)"
attr unit  B
vector 295  small_network.node2.phy[0].shaper  rc2QueueLength:vector  ETV
attr interpolationmode  sample-hold
attr title  "RC-Queue Length (rc2QueueLength)"
attr unit  packets
vector 296  small_network.node2.phy[0].shaper  rc2QueueSize:vector  ETV
attr interpolationmode  sample-hold
attr title  "RC-Queue Size (rc2QueueSize)"
attr unit  B
vector 297  small_network.node2.phy[0].shaper  rc3QueueLength:vector  ETV
attr interpolationmode  sample-hold
attr title  "RC-Queue Length (rc3QueueLength)"
attr unit  packets
vector 298  small_network.node2.phy[0].shaper  rc3QueueSize:vector  ETV
attr interpolationmode  sample-hold
attr title  "RC-Queue Size (rc3QueueSize)"
attr unit  B
vector 299  small_network.node2.phy[0].shaper  rc4QueueLength:vector  ETV
attr interpolationmode  sample-hold
attr title  "RC-Queue Length (rc4QueueLength)"
attr unit  packets
vector 300  small_network.node2.phy[0].shaper  rc4QueueSize:vector  ETV
attr interpolationmode  sample-hold
attr title  "RC-Queue Size (rc4QueueSize)"
attr unit  B
vector 301  small_network.node2.phy[0].shaper  rc5QueueLength:vector  ETV
attr interpolationmode  sample-hold
attr title  "RC-Queue Length (rc5QueueLength)"
attr unit  packets
vector 302  small_network.node2.phy[0].shaper  rc5QueueSize:vector  ETV
attr interpolationmode  sample-hold
attr title  "RC-Queue Size (rc5QueueSize)"
attr unit  B
vector 303  small_network.node2.phy[0].shaper  rc6QueueLength:vector  ETV
attr interpolationmode  sample-hold
attr title  "RC-Queue Length (rc6QueueLength)"
attr unit  packets
vector 304  small_network.node2.phy[0].shaper  rc6QueueSize:vector  ETV
attr interpolationmode  sample-hold
attr title  "RC-Queue Size (rc6QueueSize)"
attr unit  B
vector 305  small_network.node2.phy[0].shaper  rc7QueueLength:vector  ETV
attr interpolationmode  sample-hold
attr title  "RC-Queue Length (rc7QueueLength)"
attr unit  packets
vector 306  small_network.node2.phy[0].shaper  rc7QueueSize:vector  ETV
attr interpolationmode  sample-hold
attr title  "RC-Queue Size (rc7QueueSize)"
attr unit  B
vector 307  small_network.node2.phy[0].shaper  rc8QueueLength:vector  ETV
attr interpolationmode  sample-hold
attr title  "RC-Queue Length (rc8QueueLength)"
attr unit  packets
vector 308  small_network.node2.phy[0].shaper  rc8QueueSize:vector  ETV
attr interpolationmode  sample-hold
attr title  "RC-Queue Size (rc8QueueSize)"
attr unit  B
vector 309  small_network.node2.phy[0].shaper  rc9QueueLength:vector  ETV
attr interpolationmode  sample-hold
attr title  "RC-Queue Length (rc9QueueLength)"
attr unit  packets
vector 310  small_network.node2.phy[0].shaper  rc9QueueSize:vector  ETV
attr interpolationmode  sample-hold
attr title  "RC-Queue Size (rc9QueueSize)"
attr unit  B
vector 50  small_network.node2.phy[0].shaper  pcfQueueLength:vector  ETV
attr interpolationmode  sample-hold
attr title  "PCF-Queue Length, vector"
attr unit  packets
vector 51  small_network.node2.phy[0].shaper  pcfQueueSize:vector  ETV
attr interpolationmode  sample-hold
attr title  "BE-Queue Size, vector"
attr unit  B
vector 52  small_network.node2.phy[0].shaper  ttQueueLength:vector  ETV
attr interpolationmode  sample-hold
attr title  "TT-Queue Length, vector"
attr unit  packets
vector 311  small_network.node3.phy[0].shaper  q0QueueLength:vector  ETV
attr interpolationmode  sample-hold
attr title  "Q-Queue Length (q0QueueLength)"
vector 312  small_network.node3.phy[0].shaper  q0QueueSize:vector  ETV
attr interpolationmode  sample-hold
attr title  "Q-Queue Size (q0QueueSize)"
attr unit  B
vector 313  small_network.node3.phy[0].shaper  q1QueueLength:vector  ETV
attr interpolationmode  sample-hold
attr title  "Q-Queue Length (q1QueueLength)"
vector 314  small_network.node3.phy[0].shaper  q1QueueSize:vector  ETV
attr interpolationmode  sample-hold
attr title  "Q-Queue Size (q1QueueSize)"
attr unit  B
vector 315  small_network.node3.phy[0].shaper  q2QueueLength:vector  ETV
attr interpolationmode  sample-hold
attr title  "Q-Queue Length (q2QueueLength)"
vector 316  small_network.node3.phy[0].shaper  q2QueueSize:vector  ETV
attr interpolationmode  sample-hold
attr title  "Q-Queue Size (q2QueueSize)"
attr unit  B
vector 317  small_network.node3.phy[0].shaper  q3QueueLength:vector  ETV
attr interpolationmode  sample-hold
attr title  "Q-Queue Length (q3QueueLength)"
vector 318  small_network.node3.phy[0].shaper  q3QueueSize:vector  ETV
attr interpolationmode  sample-hold
attr title  "Q-Queue Size (q3QueueSize)"
attr unit  B
vector 319  small_network.node3.phy[0].shaper  q4QueueLength:vector  ETV
attr interpolationmode  sample-hold
attr title  "Q-Queue Length (q4QueueLength)"
vector 320  small_network.node3.phy[0].shaper  q4QueueSize:vector  ETV
attr interpolationmode  sample-hold
attr title  "Q-Queue Size (q4QueueSize)"
attr unit  B
vector 321  small_network.node3.phy[0].shaper  q5QueueLength:vector  ETV
attr interpolationmode  sample-hold
attr title  "Q-Queue Length (q5QueueLength)"
vector 322  small_network.node3.phy[0].shaper  q5QueueSize:vector  ETV
attr interpolationmode  sample-hold
attr title  "Q-Queue Size (q5QueueSize)"
attr unit  B
vector 323  small_network.node3.phy[0].shaper  q6QueueLength:vector  ETV
attr interpolationmode  sample-hold
attr title  "Q-Queue Length (q6QueueLength)"
vector 324  small_network.node3.phy[0].shaper  q6QueueSize:vector  ETV
attr interpolationmode  sample-hold
attr title  "Q-Queue Size (q6QueueSize)"
attr unit  B
vector 325  small_network.node3.phy[0].shaper  q7QueueLength:vector  ETV
attr interpolationmode  sample-hold
attr title  "Q-Queue Length (q7QueueLength)"
vector 326  small_network.node3.phy[0].shaper  q7QueueSize:vector  ETV
attr interpolationmode  sample-hold
attr title  "Q-Queue Size (q7QueueSize)"
attr unit  B
vector 327  small_network.node3.phy[0].shaper  rc0QueueLength:vector  ETV
attr interpolationmode  sample-hold
attr title  "RC-Queue Length (rc0QueueLength)"
attr unit  packets
vector 328  small_network.node3.phy[0].shaper  rc0QueueSize:vector  ETV
attr interpolationmode  sample-hold
attr title  "RC-Queue Size (rc0QueueSize)"
attr unit  B
vector 329  small_network.node3.phy[0].shaper  rc1QueueLength:vector  ETV
attr interpolationmode  sample-hold
attr title  "RC-Queue Length (rc1QueueLength)"
attr unit  packets
vector 330  small_network.node3.phy[0].shaper  rc1QueueSize:vector  ETV
attr interpolationmode  sample-hold
attr title  "RC-Queue Size (rc1QueueSize)"
attr unit  B
vector 331  small_network.node3.phy[0].shaper  rc2QueueLength:vector  ETV
attr interpolationmode  sample-hold
attr title  "RC-Queue Length (rc2QueueLength)"
attr unit  packets
vector 332  small_network.node3.phy[0].shaper  rc2QueueSize:vector  ETV
attr interpolationmode  sample-hold
attr title  "RC-Queue Size (rc2QueueSize)"
attr unit  B
vector 333  small_network.node3.phy[0].shaper  rc3QueueLength:vector  ETV
attr interpolationmode  sample-hold
attr title  "RC-Queue Length (rc3QueueLength)"
attr unit  packets
vector 334  small_network.node3.phy[0].shaper  rc3QueueSize:vector  ETV
attr interpolationmode  sample-hold
attr title  "RC-Queue Size (rc3QueueSize)"
attr unit  B
vector 335  small_network.node3.phy[0].shaper  rc4QueueLength:vector  ETV
attr interpolationmode  sample-hold
attr title  "RC-Queue Length (rc4QueueLength)"
attr unit  packets
vector 336  small_network.node3.phy[0].shaper  rc4QueueSize:vector  ETV
attr interpolationmode  sample-hold
attr title  "RC-Queue Size (rc4QueueSize)"
attr unit  B
vector 337  small_network.node3.phy[0].shaper  rc5QueueLength:vector  ETV
attr interpolationmode  sample-hold
attr title  "RC-Queue Length (rc5QueueLength)"
attr unit  packets
vector 338  small_network.node3.phy[0].shaper  rc5QueueSize:vector  ETV
attr interpolationmode  sample-hold
attr title  "RC-Queue Size (rc5QueueSize)"
attr unit  B
vector 339  small_network.node3.phy[0].shaper  rc6QueueLength:vector  ETV
attr interpolationmode  sample-hold
attr title  "RC-Queue Length (rc6QueueLength)"
attr unit  packets
vector 340  small_network.node3.phy[0].shaper  rc6QueueSize:vector  ETV
attr interpolationmode  sample-hold
attr title  "RC-Queue Size (rc6QueueSize)"
attr unit  B
vector 341  small_network.node3.phy[0].shaper  rc7QueueLength:vector  ETV
attr interpolationmode  sample-hold
attr title  "RC-Queue Length (rc7QueueLength)"
attr unit  packets
vector 342  small_network.node3.phy[0].shaper  rc7QueueSize:vector  ETV
attr interpolationmode  sample-hold
attr title  "RC-Queue Size (rc7QueueSize)"
attr unit  B
vector 343  small_network.node3.phy[0].shaper  rc8QueueLength:vector  ETV
attr interpolationmode  sample-hold
attr title  "RC-Queue Length (rc8QueueLength)"
attr unit  packets
vector 344  small_network.node3.phy[0].shaper  rc8QueueSize:vector  ETV
attr interpolationmode  sample-hold
attr title  "RC-Queue Size (rc8QueueSize)"
attr unit  B
vector 345  small_network.node3.phy[0].shaper  rc9QueueLength:vector  ETV
attr interpolationmode  sample-hold
attr title  "RC-Queue Length (rc9QueueLength)"
attr unit  packets
vector 346  small_network.node3.phy[0].shaper  rc9QueueSize:vector  ETV
attr interpolationmode  sample-hold
attr title  "RC-Queue Size (rc9QueueSize)"
attr unit  B
vector 98  small_network.node3.phy[0].shaper  pcfQueueLength:vector  ETV
attr interpolationmode  sample-hold
attr title  "PCF-Queue Length, vector"
attr unit  packets
vector 99  small_network.node3.phy[0].shaper  pcfQueueSize:vector  ETV
attr interpolationmode  sample-hold
attr title  "BE-Queue Size, vector"
attr unit  B
vector 100  small_network.node3.phy[0].shaper  ttQueueLength:vector  ETV
attr interpolationmode  sample-hold
attr title  "TT-Queue Length, vector"
attr unit  packets
vector 347  small_network.switch1.phy[0].shaper  q0QueueLength:vector  ETV
attr interpolationmode  sample-hold
attr title  "Q-Queue Length (q0QueueLength)"
vector 348  small_network.switch1.phy[0].shaper  q0QueueSize:vector  ETV
attr interpolationmode  sample-hold
attr title  "Q-Queue Size (q0QueueSize)"
attr unit  B
vector 349  small_network.switch1.phy[0].shaper  q1QueueLength:vector  ETV
attr interpolationmode  sample-hold
attr title  "Q-Queue Length (q1QueueLength)"
vector 350  small_network.switch1.phy[0].shaper  q1QueueSize:vector  ETV
attr interpolationmode  sample-hold
attr title  "Q-Queue Size (q1QueueSize)"
attr unit  B
vector 351  small_network.switch1.phy[0].shaper  q2QueueLength:vector  ETV
attr interpolationmode  sample-hold
attr title  "Q-Queue Length (q2QueueLength)"
vector 352  small_network.switch1.phy[0].shaper  q2QueueSize:vector  ETV
attr interpolationmode  sample-hold
attr title  "Q-Queue Size (q2QueueSize)"
attr unit  B
vector 353  small_network.switch1.phy[0].shaper  q3QueueLength:vector  ETV
attr interpolationmode  sample-hold
attr title  "Q-Queue Length (q3QueueLength)"
vector 354  small_network.switch1.phy[0].shaper  q3QueueSize:vector  ETV
attr interpolationmode  sample-hold
attr title  "Q-Queue Size (q3QueueSize)"
attr unit  B
vector 355  small_network.switch1.phy[0].shaper  q4QueueLength:vector  ETV
attr interpolationmode  sample-hold
attr title  "Q-Queue Length (q4QueueLength)"
vector 356  small_network.switch1.phy[0].shaper  q4QueueSize:vector  ETV
attr interpolationmode  sample-hold
attr title  "Q-Queue Size (q4QueueSize)"
attr unit  B
vector 357  small_network.switch1.phy[0].shaper  q5QueueLength:vector  ETV
attr interpolationmode  sample-hold
attr title  "Q-Queue Length (q5QueueLength)"
vector 358  small_network.switch1.phy[0].shaper  q5QueueSize:vector  ETV
attr interpolationmode  sample-hold
attr title  "Q-Queue Size (q5QueueSize)"
attr unit  B
vector 359  small_network.switch1.phy[0].shaper  q6QueueLength:vector  ETV
attr interpolationmode  sample-hold
attr title  "Q-Queue Length (q6QueueLength)"
vector 360  small_network.switch1.phy[0].shaper  q6QueueSize:vector  ETV
attr interpolationmode  sample-hold
attr title  "Q-Queue Size (q6QueueSize)"
attr unit  B
vector 361  small_network.switch1.phy[0].shaper  q7QueueLength:vector  ETV
attr interpolationmode  sample-hold
attr title  "Q-Queue Length (q7QueueLength)"
vector 362  small_network.switch1.phy[0].shaper  q7QueueSize:vector  ETV
attr interpolationmode  sample-hold
attr title  "Q-Queue Size (q7QueueSize)"
attr unit  B
vector 363  small_network.switch1.phy[0].shaper  rc0QueueLength:vector  ETV
attr interpolationmode  sample-hold
attr title  "RC-Queue Length (rc0QueueLength)"
attr unit  packets
vector 364  small_network.switch1.phy[0].shaper  rc0QueueSize:vector  ETV
attr interpolationmode  sample-hold
attr title  "RC-Queue Size (rc0QueueSize)"
attr unit  B
vector 365  small_network.switch1.phy[0].shaper  rc1QueueLength:vector  ETV
attr interpolationmode  sample-hold
attr title  "RC-Queue Length (rc1QueueLength)"
attr unit  packets
vector 366  small_network.switch1.phy[0].shaper  rc1QueueSize:vector  ETV
attr interpolationmode  sample-hold
attr title  "RC-Queue Size (rc1QueueSize)"
attr unit  B
vector 367  small_network.switch1.phy[0].shaper  rc2QueueLength:vector  ETV
attr interpolationmode  sample-hold
attr title  "RC-Queue Length (rc2QueueLength)"
attr unit  packets
vector 368  small_network.switch1.phy[0].shaper  rc2QueueSize:vector  ETV
attr interpolationmode  sample-hold
attr title  "RC-Queue Size (rc2QueueSize)"
attr unit  B
vector 369  small_network.switch1.phy[0].shaper  rc3QueueLength:vector  ETV
attr interpolationmode  sample-hold
attr title  "RC-Queue Length (rc3QueueLength)"
attr unit  packets
vector 370  small_network.switch1.phy[0].shaper  rc3QueueSize:vector  ETV
attr interpolationmode  sample-hold
attr title  "RC-Queue Size (rc3QueueSize)"
attr unit  B
vector 371  small_network.switch1.phy[0].shaper  rc4QueueLength:vector  ETV
attr interpolationmode  sample-hold
attr title  "RC-Queue Length (rc4QueueLength)"
attr unit  packets
vector 372  small_network.switch1.phy[0].shaper  rc4QueueSize:vector  ETV
attr interpolationmode  sample-hold
attr title  "RC-Queue Size (rc4QueueSize)"
attr unit  B
vector 373  small_network.switch1.phy[0].shaper  rc5QueueLength:vector  ETV
attr interpolationmode  sample-hold
attr title  "RC-Queue Length (rc5QueueLength)"
attr unit  packets
vector 374  small_network.switch1.phy[0].shaper  rc5QueueSize:vector  ETV
attr interpolationmode  sample-hold
attr title  "RC-Queue Size (rc5QueueSize)"
attr unit  B
vector 375  small_network.switch1.phy[0].shaper  rc6QueueLength:vector  ETV
attr interpolationmode  sample-hold
attr title  "RC-Queue Length (rc6QueueLength)"
attr unit  packets
vector 376  small_network.switch1.phy[0].shaper  rc6QueueSize:vector  ETV
attr interpolationmode  sample-hold
attr title  "RC-Queue Size (rc6QueueSize)"
attr unit  B
vector 377  small_network.switch1.phy[0].shaper  rc7QueueLength:vector  ETV
attr interpolationmode  sample-hold
attr title  "RC-Queue Length (rc7QueueLength)"
attr unit  packets
vector 378  small_network.switch1.phy[0].shaper  rc7QueueSize:vector  ETV
attr interpolationmode  sample-hold
attr title  "RC-Queue Size (rc7QueueSize)"
attr unit  B
vector 379  small_network.switch1.phy[0].shaper  rc8QueueLength:vector  ETV
attr interpolationmode  sample-hold
attr title  "RC-Queue Length (rc8QueueLength)"
attr unit  packets
vector 380  small_network.switch1.phy[0].shaper  rc8QueueSize:vector  ETV
attr interpolationmode  sample-hold
attr title  "RC-Queue Size (rc8QueueSize)"
attr unit  B
vector 381  small_network.switch1.phy[0].shaper  rc9QueueLength:vector  ETV
attr interpolationmode  sample-hold
attr title  "RC-Queue Length (rc9QueueLength)"
attr unit  packets
vector 382  small_network.switch1.phy[0].shaper  rc9QueueSize:vector  ETV
attr interpolationmode  sample-hold
attr title  "RC-Queue Size (rc9QueueSize)"
attr unit  B
vector 146  small_network.switch1.phy[0].shaper  pcfQueueLength:vector  ETV
attr interpolationmode  sample-hold
attr title  "PCF-Queue Length, vector"
attr unit  packets
vector 147  small_network.switch1.phy[0].shaper  pcfQueueSize:vector  ETV
attr interpolationmode  sample-hold
attr title  "BE-Queue Size, vector"
attr unit  B
vector 148  small_network.switch1.phy[0].shaper  ttQueueLength:vector  ETV
attr interpolationmode  sample-hold
attr title  "TT-Queue Length, vector"
attr unit  packets
vector 383  small_network.switch1.phy[1].shaper  q0QueueLength:vector  ETV
attr interpolationmode  sample-hold
attr title  "Q-Queue Length (q0QueueLength)"
vector 384  small_network.switch1.phy[1].shaper  q0QueueSize:vector  ETV
attr interpolationmode  sample-hold
attr title  "Q-Queue Size (q0QueueSize)"
attr unit  B
vector 385  small_network.switch1.phy[1].shaper  q1QueueLength:vector  ETV
attr interpolationmode  sample-hold
attr title  "Q-Queue Length (q1QueueLength)"
vector 386  small_network.switch1.phy[1].shaper  q1QueueSize:vector  ETV
attr interpolationmode  sample-hold
attr title  "Q-Queue Size (q1QueueSize)"
attr unit  B
vector 387  small_network.switch1.phy[1].shaper  q2QueueLength:vector  ETV
attr interpolationmode  sample-hold
attr title  "Q-Queue Length (q2QueueLength)"
vector 388  small_network.switch1.phy[1].shaper  q2QueueSize:vector  ETV
attr interpolationmode  sample-hold
attr title  "Q-Queue Size (q2QueueSize)"
attr unit  B
vector 389  small_network.switch1.phy[1].shaper  q3QueueLength:vector  ETV
attr interpolationmode  sample-hold
attr title  "Q-Queue Length (q3QueueLength)"
vector 390  small_network.switch1.phy[1].shaper  q3QueueSize:vector  ETV
attr interpolationmode  sample-hold
attr title  "Q-Queue Size (q3QueueSize)"
attr unit  B
vector 391  small_network.switch1.phy[1].shaper  q4QueueLength:vector  ETV
attr interpolationmode  sample-hold
attr title  "Q-Queue Length (q4QueueLength)"
vector 392  small_network.switch1.phy[1].shaper  q4QueueSize:vector  ETV
attr interpolationmode  sample-hold
attr title  "Q-Queue Size (q4QueueSize)"
attr unit  B
vector 393  small_network.switch1.phy[1].shaper  q5QueueLength:vector  ETV
attr interpolationmode  sample-hold
attr title  "Q-Queue Length (q5QueueLength)"
vector 394  small_network.switch1.phy[1].shaper  q5QueueSize:vector  ETV
attr interpolationmode  sample-hold
attr title  "Q-Queue Size (q5QueueSize)"
attr unit  B
vector 395  small_network.switch1.phy[1].shaper  q6QueueLength:vector  ETV
attr interpolationmode  sample-hold
attr title  "Q-Queue Length (q6QueueLength)"
vector 396  small_network.switch1.phy[1].shaper  q6QueueSize:vector  ETV
attr interpolationmode  sample-hold
attr title  "Q-Queue Size (q6QueueSize)"
attr unit  B
vector 397  small_network.switch1.phy[1].shaper  q7QueueLength:vector  ETV
attr interpolationmode  sample-hold
attr title  "Q-Queue Length (q7QueueLength)"
vector 398  small_network.switch1.phy[1].shaper  q7QueueSize:vector  ETV
attr interpolationmode  sample-hold
attr title  "Q-Queue Size (q7QueueSize)"
attr unit  B
vector 399  small_network.switch1.phy[1].shaper  rc0QueueLength:vector  ETV
attr interpolationmode  sample-hold
attr title  "RC-Queue Length (rc0QueueLength)"
attr unit  packets
vector 400  small_network.switch1.phy[1].shaper  rc0QueueSize:vector  ETV
attr interpolationmode  sample-hold
attr title  "RC-Queue Size (rc0QueueSize)"
attr unit  B
vector 401  small_network.switch1.phy[1].shaper  rc1QueueLength:vector  ETV
attr interpolationmode  sample-hold
attr title  "RC-Queue Length (rc1QueueLength)"
attr unit  packets
vector 402  small_network.switch1.phy[1].shaper  rc1QueueSize:vector  ETV
attr interpolationmode  sample-hold
attr title  "RC-Queue Size (rc1QueueSize)"
attr unit  B
vector 403  small_network.switch1.phy[1].shaper  rc2QueueLength:vector  ETV
attr interpolationmode  sample-hold
attr title  "RC-Queue Length (rc2QueueLength)"
attr unit  packets
vector 404  small_network.switch1.phy[1].shaper  rc2QueueSize:vector  ETV
attr interpolationmode  sample-hold
attr title  "RC-Queue Size (rc2QueueSize)"
attr unit  B
vector 405  small_network.switch1.phy[1].shaper  rc3QueueLength:vector  ETV
attr interpolationmode  sample-hold
attr title  "RC-Queue Length (rc3QueueLength)"
attr unit  packets
vector 406  small_network.switch1.phy[1].shaper  rc3QueueSize:vector  ETV
attr interpolationmode  sample-hold
attr title  "RC-Queue Size (rc3QueueSize)"
attr unit  B
vector 407  small_network.switch1.phy[1].shaper  rc4QueueLength:vector  ETV
attr interpolationmode  sample-hold
attr title  "RC-Queue Length (rc4QueueLength)"
attr unit  packets
vector 408  small_network.switch1.phy[1].shaper  rc4QueueSize:vector  ETV
attr interpolationmode  sample-hold
attr title  "RC-Queue Size (rc4QueueSize)"
attr unit  B
vector 409  small_network.switch1.phy[1].shaper  rc5QueueLength:vector  ETV
attr interpolationmode  sample-hold
attr title  "RC-Queue Length (rc5QueueLength)"
attr unit  packets
vector 410  small_network.switch1.phy[1].shaper  rc5QueueSize:vector  ETV
attr interpolationmode  sample-hold
attr title  "RC-Queue Size (rc5QueueSize)"
attr unit  B
vector 411  small_network.switch1.phy[1].shaper  rc6QueueLength:vector  ETV
attr interpolationmode  sample-hold
attr title  "RC-Queue Length (rc6QueueLength)"
attr unit  packets
vector 412  small_network.switch1.phy[1].shaper  rc6QueueSize:vector  ETV
attr interpolationmode  sample-hold
attr title  "RC-Queue Size (rc6QueueSize)"
attr unit  B
vector 413  small_network.switch1.phy[1].shaper  rc7QueueLength:vector  ETV
attr interpolationmode  sample-hold
attr title  "RC-Queue Length (rc7QueueLength)"
attr unit  packets
vector 414  small_network.switch1.phy[1].shaper  rc7QueueSize:vector  ETV
attr interpolationmode  sample-hold
attr title  "RC-Queue Size (rc7QueueSize)"
attr unit  B
vector 415  small_network.switch1.phy[1].shaper  rc8QueueLength:vector  ETV
attr interpolationmode  sample-hold
attr title  "RC-Queue Length (rc8QueueLength)"
attr unit  packets
vector 416  small_network.switch1.phy[1].shaper  rc8QueueSize:vector  ETV
attr interpolationmode  sample-hold
attr title  "RC-Queue Size (rc8QueueSize)"
attr unit  B
vector 417  small_network.switch1.phy[1].shaper  rc9QueueLength:vector  ETV
attr interpolationmode  sample-hold
attr title  "RC-Queue Length (rc9QueueLength)"
attr unit  packets
vector 418  small_network.switch1.phy[1].shaper  rc9QueueSize:vector  ETV
attr interpolationmode  sample-hold
attr title  "RC-Queue Size (rc9QueueSize)"
attr unit  B
vector 165  small_network.switch1.phy[1].shaper  pcfQueueLength:vector  ETV
attr interpolationmode  sample-hold
attr title  "PCF-Queue Length, vector"
attr unit  packets
vector 166  small_network.switch1.phy[1].shaper  pcfQueueSize:vector  ETV
attr interpolationmode  sample-hold
attr title  "BE-Queue Size, vector"
attr unit  B
vector 167  small_network.switch1.phy[1].shaper  ttQueueLength:vector  ETV
attr interpolationmode  sample-hold
attr title  "TT-Queue Length, vector"
attr unit  packets
vector 419  small_network.switch1.phy[2].shaper  q0QueueLength:vector  ETV
attr interpolationmode  sample-hold
attr title  "Q-Queue Length (q0QueueLength)"
vector 420  small_network.switch1.phy[2].shaper  q0QueueSize:vector  ETV
attr interpolationmode  sample-hold
attr title  "Q-Queue Size (q0QueueSize)"
attr unit  B
vector 421  small_network.switch1.phy[2].shaper  q1QueueLength:vector  ETV
attr interpolationmode  sample-hold
attr title  "Q-Queue Length (q1QueueLength)"
vector 422  small_network.switch1.phy[2].shaper  q1QueueSize:vector  ETV
attr interpolationmode  sample-hold
attr title  "Q-Queue Size (q1QueueSize)"
attr unit  B
vector 423  small_network.switch1.phy[2].shaper  q2QueueLength:vector  ETV
attr interpolationmode  sample-hold
attr title  "Q-Queue Length (q2QueueLength)"
vector 424  small_network.switch1.phy[2].shaper  q2QueueSize:vector  ETV
attr interpolationmode  sample-hold
attr title  "Q-Queue Size (q2QueueSize)"
attr unit  B
vector 425  small_network.switch1.phy[2].shaper  q3QueueLength:vector  ETV
attr interpolationmode  sample-hold
attr title  "Q-Queue Length (q3QueueLength)"
vector 426  small_network.switch1.phy[2].shaper  q3QueueSize:vector  ETV
attr interpolationmode  sample-hold
attr title  "Q-Queue Size (q3QueueSize)"
attr unit  B
vector 427  small_network.switch1.phy[2].shaper  q4QueueLength:vector  ETV
attr interpolationmode  sample-hold
attr title  "Q-Queue Length (q4QueueLength)"
vector 428  small_network.switch1.phy[2].shaper  q4QueueSize:vector  ETV
attr interpolationmode  sample-hold
attr title  "Q-Queue Size (q4QueueSize)"
attr unit  B
vector 429  small_network.switch1.phy[2].shaper  q5QueueLength:vector  ETV
attr interpolationmode  sample-hold
attr title  "Q-Queue Length (q5QueueLength)"
vector 430  small_network.switch1.phy[2].shaper  q5QueueSize:vector  ETV
attr interpolationmode  sample-hold
attr title  "Q-Queue Size (q5QueueSize)"
attr unit  B
vector 431  small_network.switch1.phy[2].shaper  q6QueueLength:vector  ETV
attr interpolationmode  sample-hold
attr title  "Q-Queue Length (q6QueueLength)"
vector 432  small_network.switch1.phy[2].shaper  q6QueueSize:vector  ETV
attr interpolationmode  sample-hold
attr title  "Q-Queue Size (q6QueueSize)"
attr unit  B
vector 433  small_network.switch1.phy[2].shaper  q7QueueLength:vector  ETV
attr interpolationmode  sample-hold
attr title  "Q-Queue Length (q7QueueLength)"
vector 434  small_network.switch1.phy[2].shaper  q7QueueSize:vector  ETV
attr interpolationmode  sample-hold
attr title  "Q-Queue Size (q7QueueSize)"
attr unit  B
vector 435  small_network.switch1.phy[2].shaper  rc0QueueLength:vector  ETV
attr interpolationmode  sample-hold
attr title  "RC-Queue Length (rc0QueueLength)"
attr unit  packets
vector 436  small_network.switch1.phy[2].shaper  rc0QueueSize:vector  ETV
attr interpolationmode  sample-hold
attr title  "RC-Queue Size (rc0QueueSize)"
attr unit  B
vector 437  small_network.switch1.phy[2].shaper  rc1QueueLength:vector  ETV
attr interpolationmode  sample-hold
attr title  "RC-Queue Length (rc1QueueLength)"
attr unit  packets
vector 438  small_network.switch1.phy[2].shaper  rc1QueueSize:vector  ETV
attr interpolationmode  sample-hold
attr title  "RC-Queue Size (rc1QueueSize)"
attr unit  B
vector 439  small_network.switch1.phy[2].shaper  rc2QueueLength:vector  ETV
attr interpolationmode  sample-hold
attr title  "RC-Queue Length (rc2QueueLength)"
attr unit  packets
vector 440  small_network.switch1.phy[2].shaper  rc2QueueSize:vector  ETV
attr interpolationmode  sample-hold
attr title  "RC-Queue Size (rc2QueueSize)"
attr unit  B
vector 441  small_network.switch1.phy[2].shaper  rc3QueueLength:vector  ETV
attr interpolationmode  sample-hold
attr title  "RC-Queue Length (rc3QueueLength)"
attr unit  packets
vector 442  small_network.switch1.phy[2].shaper  rc3QueueSize:vector  ETV
attr interpolationmode  sample-hold
attr title  "RC-Queue Size (rc3QueueSize)"
attr unit  B
vector 443  small_network.switch1.phy[2].shaper  rc4QueueLength:vector  ETV
attr interpolationmode  sample-hold
attr title  "RC-Queue Length (rc4QueueLength)"
attr unit  packets
vector 444  small_network.switch1.phy[2].shaper  rc4QueueSize:vector  ETV
attr interpolationmode  sample-hold
attr title  "RC-Queue Size (rc4QueueSize)"
attr unit  B
vector 445  small_network.switch1.phy[2].shaper  rc5QueueLength:vector  ETV
attr interpolationmode  sample-hold
attr title  "RC-Queue Length (rc5QueueLength)"
attr unit  packets
vector 446  small_network.switch1.phy[2].shaper  rc5QueueSize:vector  ETV
attr interpolationmode  sample-hold
attr title  "RC-Queue Size (rc5QueueSize)"
attr unit  B
vector 447  small_network.switch1.phy[2].shaper  rc6QueueLength:vector  ETV
attr interpolationmode  sample-hold
attr title  "RC-Queue Length (rc6QueueLength)"
attr unit  packets
vector 448  small_network.switch1.phy[2].shaper  rc6QueueSize:vector  ETV
attr interpolationmode  sample-hold
attr title  "RC-Queue Size (rc6QueueSize)"
attr unit  B
vector 449  small_network.switch1.phy[2].shaper  rc7QueueLength:vector  ETV
attr interpolationmode  sample-hold
attr title  "RC-Queue Length (rc7QueueLength)"
attr unit  packets
vector 450  small_network.switch1.phy[2].shaper  rc7QueueSize:vector  ETV
attr interpolationmode  sample-hold
attr title  "RC-Queue Size (rc7QueueSize)"
attr unit  B
vector 451  small_network.switch1.phy[2].shaper  rc8QueueLength:vector  ETV
attr interpolationmode  sample-hold
attr title  "RC-Queue Length (rc8QueueLength)"
attr unit  packets
vector 452  small_network.switch1.phy[2].shaper  rc8QueueSize:vector  ETV
attr interpolationmode  sample-hold
attr title  "RC-Queue Size (rc8QueueSize)"
attr unit  B
vector 453  small_network.switch1.phy[2].shaper  rc9QueueLength:vector  ETV
attr interpolationmode  sample-hold
attr title  "RC-Queue Length (rc9QueueLength)"
attr unit  packets
vector 454  small_network.switch1.phy[2].shaper  rc9QueueSize:vector  ETV
attr interpolationmode  sample-hold
attr title  "RC-Queue Size (rc9QueueSize)"
attr unit  B
vector 184  small_network.switch1.phy[2].shaper  pcfQueueLength:vector  ETV
attr interpolationmode  sample-hold
attr title  "PCF-Queue Length, vector"
attr unit  packets
vector 185  small_network.switch1.phy[2].shaper  pcfQueueSize:vector  ETV
attr interpolationmode  sample-hold
attr title  "BE-Queue Size, vector"
attr unit  B
vector 186  small_network.switch1.phy[2].shaper  ttQueueLength:vector  ETV
attr interpolationmode  sample-hold
attr title  "TT-Queue Length, vector"
attr unit  packets
vector 35  small_network.node1.scheduler.oscillator  currentDrift:vector  ETV
attr title  "Current drift, vector"
attr unit  s
vector 34  small_network.node1.scheduler.timer  clockCorrection:vector  ETV
attr title  "Clock correction, vector"
attr unit  tick
vector 83  small_network.node2.scheduler.oscillator  currentDrift:vector  ETV
attr title  "Current drift, vector"
attr unit  s
vector 82  small_network.node2.scheduler.timer  clockCorrection:vector  ETV
attr title  "Clock correction, vector"
attr unit  tick
vector 131  small_network.node3.scheduler.oscillator  currentDrift:vector  ETV
attr title  "Current drift, vector"
attr unit  s
vector 130  small_network.node3.scheduler.timer  clockCorrection:vector  ETV
attr title  "Clock correction, vector"
attr unit  tick
vector 234  small_network.switch1.scheduler.oscillator  currentDrift:vector  ETV
attr title  "Current drift, vector"
attr unit  s
vector 233  small_network.switch1.scheduler.timer  clockCorrection:vector  ETV
attr title  "Clock correction, vector"
attr unit  tick
vector 42  small_network.node1.bgOut  length:vector  ETV
attr interpolationmode  sample-hold
attr source  length
attr title  "Queue Length, vector"
attr unit  packets
vector 43  small_network.node1.bgOut  size:vector  ETV
attr interpolationmode  sample-hold
attr source  size
attr title  "Queue Size, vector"
attr unit  B
vector 40  small_network.node1.bgOut  txBytes:vector(packetBytes)  ETV
attr interpolationmode  none
attr source  txPk
attr title  "Transmitted Bytes, vector(packetBytes)"
attr unit  B
vector 41  small_network.node1.bgOut  txLatency:vector  ETV
attr interpolationmode  none
attr source  messageAge(txPk)
attr title  "End-to-end latency (transmitted), vector"
attr unit  s
vector 15  small_network.node1.phy[0].mac  rxPkFromHL:vector(packetBytes)  ETV
attr interpolationmode  none
attr source  rxPkFromHL
attr title  "packet bytes from higher layer, vector(packetBytes)"
vector 10  small_network.node1.phy[0].mac  txPk:vector(packetBytes)  ETV
attr interpolationmode  none
attr source  txPk
attr title  "packets transmitted, vector(packetBytes)"
vector 155  small_network.switch1.phy[0].mac  rxPkOk:vector(packetBytes)  ETV
attr interpolationmode  none
attr source  rxPkOk
attr title  "packets received OK, vector(packetBytes)"
vector 156  small_network.switch1.phy[0].mac  passedUpPk:vector(packetBytes)  ETV
attr interpolationmode  none
attr source  packetSentToUpper
attr title  "packets passed to higher layer, vector(packetBytes)"
vector 153  small_network.switch1.phy[0].inControl  rxLatency:vector  ETV
attr interpolationmode  none
attr source  messageAge(rxPk)
attr title  "End-to-end latency (received), vector"
attr unit  s
vector 23  small_network.node1.avbABuffer[0]  credit:vector  ETV
attr ""  ""
attr interpolationmode  linear
attr source  credit
attr title  "Credit, vector"
attr unit  b
vector 28  small_network.node1.avbBBuffer[0]  credit:vector  ETV
attr ""  ""
attr interpolationmode  linear
attr source  credit
attr title  "Credit, vector"
attr unit  b
vector 178  small_network.switch1.phy[1].mac  rxPkFromHL:vector(packetBytes)  ETV
attr interpolationmode  none
attr source  rxPkFromHL
attr title  "packet bytes from higher layer, vector(packetBytes)"
vector 197  small_network.switch1.phy[2].mac  rxPkFromHL:vector(packetBytes)  ETV
attr interpolationmode  none
attr source  rxPkFromHL
attr title  "packet bytes from higher layer, vector(packetBytes)"
vector 173  small_network.switch1.phy[1].mac  txPk:vector(packetBytes)  ETV
attr interpolationmode  none
attr source  txPk
attr title  "packets transmitted, vector(packetBytes)"
vector 192  small_network.switch1.phy[2].mac  txPk:vector(packetBytes)  ETV
attr interpolationmode  none
attr source  txPk
attr title  "packets transmitted, vector(packetBytes)"
vector 107  small_network.node3.phy[0].mac  rxPkOk:vector(packetBytes)  ETV
attr interpolationmode  none
attr source  rxPkOk
attr title  "packets received OK, vector(packetBytes)"
vector 108  small_network.node3.phy[0].mac  passedUpPk:vector(packetBytes)  ETV
attr interpolationmode  none
attr source  packetSentToUpper
attr title  "packets passed to higher layer, vector(packetBytes)"
vector 105  small_network.node3.phy[0].inControl  rxLatency:vector  ETV
attr interpolationmode  none
attr source  messageAge(rxPk)
attr title  "End-to-end latency (received), vector"
attr unit  s
vector 134  small_network.node3.bgIn  length:vector  ETV
attr interpolationmode  sample-hold
attr source  length
attr title  "Queue Length, vector"
attr unit  packets
vector 135  small_network.node3.bgIn  size:vector  ETV
attr interpolationmode  sample-hold
attr source  size
attr title  "Queue Size, vector"
attr unit  B
vector 132  small_network.node3.bgIn  txBytes:vector(packetBytes)  ETV
attr interpolationmode  none
attr source  txPk
attr title  "Transmitted Bytes, vector(packetBytes)"
attr unit  B
vector 133  small_network.node3.bgIn  txLatency:vector  ETV
attr interpolationmode  none
attr source  messageAge(txPk)
attr title  "End-to-end latency (transmitted), vector"
attr unit  s
vector 138  small_network.node3.bgOut  length:vector  ETV
attr interpolationmode  sample-hold
attr source  length
attr title  "Queue Length, vector"
attr unit  packets
vector 139  small_network.node3.bgOut  size:vector  ETV
attr interpolationmode  sample-hold
attr source  size
attr title  "Queue Size, vector"
attr unit  B
vector 136  small_network.node3.bgOut  txBytes:vector(packetBytes)  ETV
attr interpolationmode  none
attr source  txPk
attr title  "Transmitted Bytes, vector(packetBytes)"
attr unit  B
vector 137  small_network.node3.bgOut  txLatency:vector  ETV
attr interpolationmode  none
attr source  messageAge(txPk)
attr title  "End-to-end latency (transmitted), vector"
attr unit  s
vector 111  small_network.node3.phy[0].mac  rxPkFromHL:vector(packetBytes)  ETV
attr interpolationmode  none
attr source  rxPkFromHL
attr title  "packet bytes from higher layer, vector(packetBytes)"
vector 59  small_network.node2.phy[0].mac  rxPkOk:vector(packetBytes)  ETV
attr interpolationmode  none
attr source  rxPkOk
attr title  "packets received OK, vector(packetBytes)"
vector 60  small_network.node2.phy[0].mac  passedUpPk:vector(packetBytes)  ETV
attr interpolationmode  none
attr source  packetSentToUpper
attr title  "packets passed to higher layer, vector(packetBytes)"
vector 57  small_network.node2.phy[0].inControl  rxLatency:vector  ETV
attr interpolationmode  none
attr source  messageAge(rxPk)
attr title  "End-to-end latency (received), vector"
attr unit  s
vector 86  small_network.node2.bgIn  length:vector  ETV
attr interpolationmode  sample-hold
attr source  length
attr title  "Queue Length, vector"
attr unit  packets
vector 87  small_network.node2.bgIn  size:vector  ETV
attr interpolationmode  sample-hold
attr source  size
attr title  "Queue Size, vector"
attr unit  B
vector 84  small_network.node2.bgIn  txBytes:vector(packetBytes)  ETV
attr interpolationmode  none
attr source  txPk
attr title  "Transmitted Bytes, vector(packetBytes)"
attr unit  B
vector 85  small_network.node2.bgIn  txLatency:vector  ETV
attr interpolationmode  none
attr source  messageAge(txPk)
attr title  "End-to-end latency (transmitted), vector"
attr unit  s
vector 90  small_network.node2.bgOut  length:vector  ETV
attr interpolationmode  sample-hold
attr source  length
attr title  "Queue Length, vector"
attr unit  packets
vector 91  small_network.node2.bgOut  size:vector  ETV
attr interpolationmode  sample-hold
attr source  size
attr title  "Queue Size, vector"
attr unit  B
vector 88  small_network.node2.bgOut  txBytes:vector(packetBytes)  ETV
attr interpolationmode  none
attr source  txPk
attr title  "Transmitted Bytes, vector(packetBytes)"
attr unit  B
vector 89  small_network.node2.bgOut  txLatency:vector  ETV
attr interpolationmode  none
attr source  messageAge(txPk)
attr title  "End-to-end latency (transmitted), vector"
attr unit  s
vector 63  small_network.node2.phy[0].mac  rxPkFromHL:vector(packetBytes)  ETV
attr interpolationmode  none
attr source  rxPkFromHL
attr title  "packet bytes from higher layer, vector(packetBytes)"
vector 210  small_network.switch1.avbABuffer[1]  credit:vector  ETV
attr ""  ""
attr interpolationmode  linear
attr source  credit
attr title  "Credit, vector"
attr unit  b
vector 225  small_network.switch1.avbBBuffer[1]  credit:vector  ETV
attr ""  ""
attr interpolationmode  linear
attr source  credit
attr title  "Credit, vector"
attr unit  b
vector 215  small_network.switch1.avbABuffer[2]  credit:vector  ETV
attr ""  ""
attr interpolationmode  linear
attr source  credit
attr title  "Credit, vector"
attr unit  b
vector 230  small_network.switch1.avbBBuffer[2]  credit:vector  ETV
attr ""  ""
attr interpolationmode  linear
attr source  credit
attr title  "Credit, vector"
attr unit  b
vector 106  small_network.node3.phy[0].mac  txPk:vector(packetBytes)  ETV
attr interpolationmode  none
attr source  txPk
attr title  "packets transmitted, vector(packetBytes)"
vector 193  small_network.switch1.phy[2].mac  rxPkOk:vector(packetBytes)  ETV
attr interpolationmode  none
attr source  rxPkOk
attr title  "packets received OK, vector(packetBytes)"
vector 194  small_network.switch1.phy[2].mac  passedUpPk:vector(packetBytes)  ETV
attr interpolationmode  none
attr source  packetSentToUpper
attr title  "packets passed to higher layer, vector(packetBytes)"
vector 58  small_network.node2.phy[0].mac  txPk:vector(packetBytes)  ETV
attr interpolationmode  none
attr source  txPk
attr title  "packets transmitted, vector(packetBytes)"
vector 191  small_network.switch1.phy[2].inControl  rxLatency:vector  ETV
attr interpolationmode  none
attr source  messageAge(rxPk)
attr title  "End-to-end latency (received), vector"
attr unit  s
vector 174  small_network.switch1.phy[1].mac  rxPkOk:vector(packetBytes)  ETV
attr interpolationmode  none
attr source  rxPkOk
attr title  "packets received OK, vector(packetBytes)"
vector 175  small_network.switch1.phy[1].mac  passedUpPk:vector(packetBytes)  ETV
attr interpolationmode  none
attr source  packetSentToUpper
attr title  "packets passed to higher layer, vector(packetBytes)"
vector 172  small_network.switch1.phy[1].inControl  rxLatency:vector  ETV
attr interpolationmode  none
attr source  messageAge(rxPk)
attr title  "End-to-end latency (received), vector"
attr unit  s
vector 119  small_network.node3.avbABuffer[0]  credit:vector  ETV
attr ""  ""
attr interpolationmode  linear
attr source  credit
attr title  "Credit, vector"
attr unit  b
vector 124  small_network.node3.avbBBuffer[0]  credit:vector  ETV
attr ""  ""
attr interpolationmode  linear
attr source  credit
attr title  "Credit, vector"
attr unit  b
vector 71  small_network.node2.avbABuffer[0]  credit:vector  ETV
attr ""  ""
attr interpolationmode  linear
attr source  credit
attr title  "Credit, vector"
attr unit  b
vector 76  small_network.node2.avbBBuffer[0]  credit:vector  ETV
attr ""  ""
attr interpolationmode  linear
attr source  credit
attr title  "Credit, vector"
attr unit  b
vector 159  small_network.switch1.phy[0].mac  rxPkFromHL:vector(packetBytes)  ETV
attr interpolationmode  none
attr source  rxPkFromHL
attr title  "packet bytes from higher layer, vector(packetBytes)"
vector 154  small_network.switch1.phy[0].mac  txPk:vector(packetBytes)  ETV
attr interpolationmode  none
attr source  txPk
attr title  "packets transmitted, vector(packetBytes)"
vector 11  small_network.node1.phy[0].mac  rxPkOk:vector(packetBytes)  ETV
attr interpolationmode  none
attr source  rxPkOk
attr title  "packets received OK, vector(packetBytes)"
vector 12  small_network.node1.phy[0].mac  passedUpPk:vector(packetBytes)  ETV
attr interpolationmode  none
attr source  packetSentToUpper
attr title  "packets passed to higher layer, vector(packetBytes)"
vector 9  small_network.node1.phy[0].inControl  rxLatency:vector  ETV
attr interpolationmode  none
attr source  messageAge(rxPk)
attr title  "End-to-end latency (received), vector"
attr unit  s
vector 38  small_network.node1.bgIn  length:vector  ETV
attr interpolationmode  sample-hold
attr source  length
attr title  "Queue Length, vector"
attr unit  packets
vector 39  small_network.node1.bgIn  size:vector  ETV
attr interpolationmode  sample-hold
attr source  size
attr title  "Queue Size, vector"
attr unit  B
vector 36  small_network.node1.bgIn  txBytes:vector(packetBytes)  ETV
attr interpolationmode  none
attr source  txPk
attr title  "Transmitted Bytes, vector(packetBytes)"
attr unit  B
vector 37  small_network.node1.bgIn  txLatency:vector  ETV
attr interpolationmode  none
attr source  messageAge(txPk)
attr title  "End-to-end latency (transmitted), vector"
attr unit  s
vector 205  small_network.switch1.avbABuffer[0]  credit:vector  ETV
attr ""  ""
attr interpolationmode  linear
attr source  credit
attr title  "Credit, vector"
attr unit  b
vector 220  small_network.switch1.avbBBuffer[0]  credit:vector  ETV
attr ""  ""
attr interpolationmode  linear
attr source  credit
attr title  "Credit, vector"
attr unit  b
2	0	0	0
3	0	0	0
4	0	0	0
9	4075	1.00003929	1.9645e-005
9	4093	1.00004601	2.634e-005
10	4013	1.00000576	64
10	4087	1.00004505	64
11	4074	1.00003929	64
11	4091	1.00004601	64
12	4074	1.00003929	64
12	4091	1.00004601	64
15	4004	1	64
15	4082	1.00003929	64
23	4016	1.00000672	0
23	4092	1.00004601	0
28	4016	1.00000672	0
28	4092	1.00004601	0
34	18	0.005	1
34	43	0.00999992	-2
34	59	0.01500008	1
34	75	0.019999937501	-2
34	99	0.025000097501	4
34	115	0.029999964989	-1
34	143	0.035000482496	6
34	163	0.040000252472	1
34	183	0.04500029747	2
34	195	0.050000012474	-2
34	219	0.055000109972	4
34	235	0.05999966498	-4
34	255	0.064999922476	0
34	275	0.069999797476	0
34	299	0.074999922476	-2
34	319	0.080000082476	2
34	339	0.084999734982	-3
34	359	0.08999972497	-1
34	375	0.094999367463	-11
34	399	0.10000005993	-1
34	419	0.104999764924	0
34	439	0.109999327424	-9
34	459	0.114999484843	-8
34	475	0.119999749795	-3
34	495	0.124999427268	-8
34	515	0.129999567204	-6
34	539	0.134999609662	-6
34	559	0.139999714626	-3
34	579	0.14499982962	-1
34	599	0.149999659616	-6
34	619	0.154999952098	-1
34	639	0.159999844595	-2
34	659	0.164999879591	-3
34	679	0.169999869579	-5
34	699	0.174999894549	1
34	715	0.179999502054	-9
34	743	0.185000097036	-2
34	759	0.189999944526	1
34	779	0.194999802027	-5
34	803	0.200000202027	-1
34	819	0.205000219526	2
34	839	0.209999997028	-3
34	863	0.215000362034	4
34	883	0.220000167026	2
34	903	0.225000257018	4
34	927	0.230000311994	6
34	939	0.23500008197	2
34	963	0.24000023446	0
34	987	0.24500048446	9
34	999	0.250000014424	-3
34	1027	0.25500037943	4
34	1043	0.259999996934	-1
34	1063	0.265000076934	0
34	1087	0.270000326934	6
34	1103	0.275000221898	1
34	1127	0.280000579391	9
34	1147	0.28500042181	7
34	1167	0.290000299261	6
34	1179	0.295000131731	2
34	1199	0.300000034229	-2
34	1227	0.305000256731	1
34	1243	0.310000051733	2
34	1259	0.314999829235	-5
34	1283	0.32000016673	0
34	1307	0.32500029173	2
34	1319	0.33000013173	-2
34	1343	0.335000104224	2
34	1359	0.339999631734	-4
34	1379	0.344999639214	-5
34	1403	0.349999976709	0
34	1419	0.354999976709	-3
34	1443	0.360000404218	8
34	1463	0.365000201662	1
34	1483	0.370000496656	4
34	1507	0.375000551632	8
34	1523	0.380000536552	5
34	1547	0.385000699007	11
34	1563	0.390000131452	0
34	1587	0.395000568952	7
34	1607	0.400000321417	1
34	1627	0.40500067891	8
34	1647	0.41000035137	6
34	1667	0.415000308828	0
34	1687	0.420000871328	11
34	1707	0.425000678707	10
34	1723	0.430000441117	8
34	1747	0.435000363545	4
34	1767	0.440000481017	8
34	1783	0.445000028493	-2
34	1807	0.450000375999	2
34	1827	0.455000653485	11
34	1843	0.460000210908	4
34	1867	0.465000453372	6
34	1887	0.470000473324	2
34	1907	0.475000625814	10
34	1927	0.480000200754	4
34	1947	0.485000318226	0
34	1967	0.490000568226	7
34	1983	0.495000195705	1
34	2003	0.500000053206	0
34	2015	0.504999740706	-4
34	2035	0.509999685682	-7
34	2055	0.515000058161	2
34	2083	0.519999773165	-2
34	2099	0.524999683157	-4
34	2123	0.529999503125	-8
34	2135	0.534999580553	-4
34	2155	0.539999400521	-6
34	2175	0.544999505485	-6
34	2199	0.549999485437	-5
34	2215	0.554999260387	-7
34	2235	0.55999913281	-11
34	2255	0.564999200167	-9
34	2275	0.569999357586	-11
34	2295	0.574999549965	-7
34	2319	0.579999547402	-7
34	2335	0.584999482332	-5
34	2355	0.589999132272	-12
34	2379	0.594999529664	-6
34	2399	0.599999634628	-7
34	2419	0.605000069614	1
34	2439	0.609999739618	-6
34	2459	0.6150000321	3
34	2479	0.619999604609	-5
34	2499	0.624999754589	-7
34	2523	0.630000002054	-3
34	2543	0.634999929539	-3
34	2563	0.640000044533	0
34	2579	0.644999732033	-4
34	2599	0.649999802017	-2
34	2619	0.654999649507	-3
34	2639	0.659999451986	-10
34	2659	0.664999751906	-6
34	2679	0.669999669352	-2
34	2695	0.67499914183	-12
34	2719	0.67999947671	-7
34	2739	0.684999474147	-6
34	2759	0.689999141569	-14
34	2779	0.694999386373	-9
34	2799	0.699999231247	-10
34	2819	0.704999093597	-13
34	2835	0.709999133389	-12
34	2855	0.714999093197	-13
34	2875	0.719999320528	-10
34	2895	0.724999120368	-10
34	2915	0.729998920208	-16
34	2935	0.734999199952	-8
34	2955	0.73999896484	-13
34	2975	0.744999004632	-12
34	2995	0.749999026952	-12
34	3015	0.75499898676	-12
34	3035	0.759998946568	-15
34	3055	0.764999208843	-10
34	3075	0.769999071193	-11
34	3095	0.774999263572	-8
34	3115	0.779999278492	-10
34	3135	0.784999390882	-8
34	3155	0.789999593326	-9
34	3179	0.794999813254	-1
34	3195	0.799999393246	-9
34	3215	0.804999425647	-11
34	3239	0.809999805559	-1
34	3255	0.814999198048	-14
34	3279	0.819999817936	0
34	3295	0.824999130436	-11
34	3319	0.829999322815	-12
34	3339	0.834999782719	-6
34	3359	0.839999700165	-5
34	3379	0.844999600125	-4
34	3399	0.849999232581	-11
34	3419	0.85499942496	-7
34	3435	0.859999234876	-10
34	3455	0.864999097226	-10
34	3479	0.869999209616	-7
34	3499	0.874999019532	-11
34	3515	0.879998899356	-13
34	3535	0.884998939148	-17
34	3555	0.889999298876	-11
34	3575	0.8949991787	-9
34	3595	0.899999023574	-13
34	3615	0.904999125879	-12
34	3635	0.909999273223	-8
34	3655	0.914999038111	-13
34	3675	0.919999327955	-9
34	3695	0.924999235338	-13
34	3719	0.929999337643	-7
34	3739	0.934999210066	-9
34	3755	0.93999905494	-13
34	3783	0.94499946981	-6
34	3795	0.949999199738	-11
34	3819	0.954999267095	-11
34	3839	0.959999334452	-6
34	3855	0.964999251898	-13
34	3883	0.969999979333	0
34	3903	0.974999854333	-2
34	3923	0.980000014333	-3
34	3943	0.985000441842	3
34	3963	0.990000264339	3
34	3983	0.995000149333	2
34	4008	1.000000364321	2
34	4123	1.005000454313	6
34	4143	1.010000161795	2
34	4167	1.015000439281	5
35	17	0.005	0
35	42	0.00999992	0
35	58	0.01500008	-1e-012
35	74	0.019999937501	0
35	98	0.025000097501	3e-012
35	114	0.029999964989	7e-012
35	142	0.035000482496	4e-012
35	162	0.040000252472	2e-012
35	182	0.04500029747	-2e-012
35	194	0.050000012474	-1e-012
35	218	0.055000109972	-2e-012
35	234	0.05999966498	-1e-012
35	254	0.064999922476	-2e-012
35	274	0.069999797476	2e-012
35	298	0.074999922476	0
35	318	0.080000082476	-3e-012
35	338	0.084999734982	-4e-012
35	358	0.08999972497	-7e-012
35	374	0.094999367463	-3e-012
35	398	0.10000005993	-6e-012
35	418	0.104999764924	-7e-012
35	438	0.109999327424	-9e-012
35	458	0.114999484843	-6e-012
35	474	0.119999749795	-9e-012
35	494	0.124999427268	-8e-012
35	514	0.129999567204	-7e-012
35	538	0.134999609662	-6e-012
35	558	0.139999714626	-2e-012
35	578	0.14499982962	-4e-012
35	598	0.149999659616	-3e-012
35	618	0.154999952098	-3e-012
35	638	0.159999844595	-2e-012
35	658	0.164999879591	-4e-012
35	678	0.169999869579	-6e-012
35	698	0.174999894549	-5e-012
35	714	0.179999502054	-2e-012
35	742	0.185000097036	-5e-012
35	758	0.189999944526	-1e-012
35	778	0.194999802027	0
35	802	0.200000202027	-1e-012
35	818	0.205000219526	-1e-012
35	838	0.209999997028	2e-012
35	862	0.215000362034	2e-012
35	882	0.220000167026	4e-012
35	902	0.225000257018	6e-012
35	926	0.230000311994	4e-012
35	938	0.23500008197	5e-012
35	962	0.24000023446	4e-012
35	986	0.24500048446	4e-012
35	998	0.250000014424	2e-012
35	1026	0.25500037943	-1e-012
35	1042	0.259999996934	0
35	1062	0.265000076934	4e-012
35	1086	0.270000326934	6e-012
35	1102	0.275000221898	7e-012
35	1126	0.280000579391	9e-012
35	1146	0.28500042181	7e-012
35	1166	0.290000299261	5e-012
35	1178	0.295000131731	1e-012
35	1198	0.300000034229	1e-012
35	1226	0.305000256731	-2e-012
35	1242	0.310000051733	-1e-012
35	1258	0.314999829235	-1e-012
35	1282	0.32000016673	2e-012
35	1306	0.32500029173	0
35	1318	0.33000013173	-3e-012
35	1342	0.335000104224	-5e-012
35	1358	0.339999631734	-5e-012
35	1378	0.344999639214	-1e-012
35	1402	0.349999976709	0
35	1418	0.354999976709	3e-012
35	1442	0.360000404218	7e-012
35	1462	0.365000201662	6e-012
35	1482	0.370000496656	6e-012
35	1506	0.375000551632	1e-011
35	1522	0.380000536552	9e-012
35	1546	0.385000699007	5e-012
35	1562	0.390000131452	7e-012
35	1586	0.395000568952	5e-012
35	1606	0.400000321417	7e-012
35	1626	0.40500067891	5e-012
35	1646	0.41000035137	7e-012
35	1666	0.415000308828	9e-012
35	1686	0.420000871328	1.1e-011
35	1706	0.425000678707	9e-012
35	1722	0.430000441117	9e-012
35	1746	0.435000363545	7e-012
35	1766	0.440000481017	3e-012
35	1782	0.445000028493	3e-012
35	1806	0.450000375999	7e-012
35	1826	0.455000653485	7e-012
35	1842	0.460000210908	9e-012
35	1866	0.465000453372	8e-012
35	1886	0.470000473324	5e-012
35	1906	0.475000625814	6e-012
35	1926	0.480000200754	7e-012
35	1946	0.485000318226	4e-012
35	1966	0.490000568226	3e-012
35	1982	0.495000195705	-1e-012
35	2002	0.500000053206	-5e-012
35	2014	0.504999740706	-6e-012
35	2034	0.509999685682	-3e-012
35	2054	0.515000058161	-2e-012
35	2082	0.519999773165	-4e-012
35	2098	0.524999683157	-8e-012
35	2122	0.529999503125	-9e-012
35	2134	0.534999580553	-8e-012
35	2154	0.539999400521	-6e-012
35	2174	0.544999505485	-8e-012
35	2198	0.549999485437	-1e-011
35	2214	0.554999260387	-1.1e-011
35	2234	0.55999913281	-1.3e-011
35	2254	0.564999200167	-9e-012
35	2274	0.569999357586	-1.1e-011
35	2294	0.574999549965	-9e-012
35	2318	0.579999547402	-1e-011
35	2334	0.584999482332	-1.2e-011
35	2354	0.589999132272	-9e-012
35	2378	0.594999529664	-6e-012
35	2398	0.599999634628	-2e-012
35	2418	0.605000069614	-4e-012
35	2438	0.609999739618	-3e-012
35	2458	0.6150000321	-3e-012
35	2478	0.619999604609	-4e-012
35	2498	0.624999754589	-5e-012
35	2522	0.630000002054	-5e-012
35	2542	0.634999929539	-2e-012
35	2562	0.640000044533	-5e-012
35	2578	0.644999732033	-4e-012
35	2598	0.649999802017	-5e-012
35	2618	0.654999649507	-7e-012
35	2638	0.659999451986	-8e-012
35	2658	0.664999751906	-9e-012
35	2678	0.669999669352	-1.1e-011
35	2694	0.67499914183	-1e-011
35	2718	0.67999947671	-9e-012
35	2738	0.684999474147	-1.3e-011
35	2758	0.689999141569	-1.4e-011
35	2778	0.694999386373	-1.4e-011
35	2798	0.699999231247	-1.5e-011
35	2818	0.704999093597	-1.6e-011
35	2834	0.709999133389	-1.6e-011
35	2854	0.714999093197	-1.3e-011
35	2874	0.719999320528	-1.6e-011
35	2894	0.724999120368	-1.6e-011
35	2914	0.729998920208	-1.6e-011
35	2934	0.734999199952	-1.4e-011
35	2954	0.73999896484	-1.6e-011
35	2974	0.744999004632	-1.5e-011
35	2994	0.749999026952	-1.6e-011
35	3014	0.75499898676	-1.6e-011
35	3034	0.759998946568	-1.5e-011
35	3054	0.764999208843	-1.5e-011
35	3074	0.769999071193	-1.1e-011
35	3094	0.774999263572	-1e-011
35	3114	0.779999278492	-1.1e-011
35	3134	0.784999390882	-7e-012
35	3154	0.789999593326	-8e-012
35	3178	0.794999813254	-8e-012
35	3194	0.799999393246	-1.1e-011
35	3214	0.804999425647	-8e-012
35	3238	0.809999805559	-1.1e-011
35	3254	0.814999198048	-8e-012
35	3278	0.819999817936	-1.1e-011
35	3294	0.824999130436	-1.1e-011
35	3318	0.829999322815	-8e-012
35	3338	0.834999782719	-9e-012
35	3358	0.839999700165	-8e-012
35	3378	0.844999600125	-1.1e-011
35	3398	0.849999232581	-1.1e-011
35	3418	0.85499942496	-1.2e-011
35	3434	0.859999234876	-1.5e-011
35	3454	0.864999097226	-1.1e-011
35	3478	0.869999209616	-1.2e-011
35	3498	0.874999019532	-1.6e-011
35	3514	0.879998899356	-1.6e-011
35	3534	0.884998939148	-1.6e-011
35	3554	0.889999298876	-1.6e-011
35	3574	0.8949991787	-1.4e-011
35	3594	0.899999023574	-1.5e-011
35	3614	0.904999125879	-1.3e-011
35	3634	0.909999273223	-1.4e-011
35	3654	0.914999038111	-1.2e-011
35	3674	0.919999327955	-1.3e-011
35	3694	0.924999235338	-1.5e-011
35	3718	0.929999337643	-1.1e-011
35	3738	0.934999210066	-1.4e-011
35	3754	0.93999905494	-1e-011
35	3782	0.94499946981	-1.2e-011
35	3794	0.949999199738	-1.3e-011
35	3818	0.954999267095	-1.3e-011
35	3838	0.959999334452	-9e-012
35	3854	0.964999251898	-5e-012
35	3882	0.969999979333	-2e-012
35	3902	0.974999854333	0
35	3922	0.980000014333	3e-012
35	3942	0.985000441842	1e-012
35	3962	0.990000264339	2e-012
35	3982	0.995000149333	6e-012
35	4007	1.000000364321	4e-012
35	4122	1.005000454313	3e-012
35	4142	1.010000161795	7e-012
35	4166	1.015000439281	8e-012
36	4077	1.00003929	64
36	4095	1.00004601	64
37	4077	1.00003929	1.9645e-005
37	4095	1.00004601	2.634e-005
38	4077	1.00003929	1
38	4077	1.00003929	0
38	4095	1.00004601	1
38	4095	1.00004601	0
39	4077	1.00003929	64
39	4077	1.00003929	0
39	4095	1.00004601	64
39	4095	1.00004601	0
40	4001	1	64
40	4079	1.00003929	64
41	4001	1	0
41	4079	1.00003929	0
42	4001	1	1
42	4001	1	0
42	4079	1.00003929	1
42	4079	1.00003929	0
43	4001	1	64
43	4001	1	0
43	4079	1.00003929	64
43	4079	1.00003929	0
50	0	0	0
51	0	0	0
52	0	0	0
57	4034	1.00001967	1.967e-005
57	4065	1.00003924	1.9595e-005
57	4103	1.00005896	1.967e-005
58	4046	1.00002543	64
59	4033	1.00001967	64
59	4063	1.00003924	64
59	4102	1.00005896	64
60	4033	1.00001967	64
60	4063	1.00003924	64
60	4102	1.00005896	64
63	4041	1.00001967	64
71	4051	1.00002639	0
76	4051	1.00002639	0
82	21	0.005	2
82	47	0.009999964996	-4
82	67	0.015000597516	7
82	87	0.020000349981	5
82	95	0.025000074971	-1
82	119	0.030000029969	2
82	135	0.034999869969	-1
82	155	0.039999762466	-5
82	175	0.044999974951	-3
82	199	0.050000027442	-1
82	215	0.05499998244	0
82	239	0.05999979494	-5
82	259	0.06500006993	-1
82	279	0.069999962427	0
82	295	0.074999587427	-5
82	315	0.079999674902	-6
82	335	0.084999654854	-2
82	355	0.089999189834	-10
82	379	0.094999552264	-6
82	395	0.099999657228	-2
82	415	0.104999317212	-7
82	435	0.109999314649	-7
82	455	0.114999374593	-11
82	479	0.119999817016	-1
82	499	0.124999584511	-8
82	519	0.129999661939	-4
82	535	0.134999294395	-7
82	555	0.139999041804	-10
82	575	0.144998904154	-16
82	595	0.149999371446	-10
82	615	0.154999546346	-5
82	635	0.159999446306	-6
82	655	0.164999363752	-9
82	675	0.16999958368	-8
82	695	0.174999536092	-9
82	719	0.179999631002	-8
82	735	0.184999583414	-6
82	755	0.18999950086	-7
82	775	0.194999623311	-5
82	795	0.199999398261	-9
82	815	0.204999618189	-6
82	835	0.209999723153	-7
82	859	0.215000158139	0
82	875	0.219999845639	-4
82	895	0.224999728111	-1
82	915	0.229999308103	-9
82	935	0.234999340504	-10
82	955	0.239999640424	-2
82	975	0.244999425412	-10
82	995	0.249999662822	-4
82	1015	0.254999295278	-7
82	1035	0.259999042687	-10
82	1055	0.264998842527	-14
82	1075	0.269998962303	-10
82	1095	0.274998824653	-12
82	1115	0.279998784461	-19
82	1135	0.284999366676	-7
82	1155	0.289998926564	-16
82	1175	0.294999456372	-7
82	1195	0.299999266288	-9
82	1215	0.304999173671	-9
82	1235	0.309999268581	-9
82	1255	0.314999488509	-9
82	1275	0.31999952091	-4
82	1295	0.324999278374	-9
82	1315	0.329999435793	-7
82	1335	0.334999308216	-7
82	1355	0.339999243146	-10
82	1375	0.344999230516	-12
82	1395	0.349999315348	-8
82	1415	0.354999330268	-7
82	1435	0.359999140184	-9
82	1455	0.364999047567	-15
82	1475	0.369999434872	-9
82	1495	0.374999529782	-7
82	1515	0.379999277191	-11
82	1535	0.384999532081	-4
82	1555	0.389999164537	-14
82	1575	0.394999721911	-6
82	1595	0.399999451839	-5
82	1615	0.404999039274	-15
82	1635	0.409999301549	-9
82	1655	0.414999021405	-13
82	1675	0.419999061197	-11
82	1695	0.424998941021	-16
82	1715	0.429999220765	-12
82	1735	0.434999180573	-11
82	1755	0.439999185419	-12
82	1775	0.444999332763	-9
82	1795	0.449999177637	-11
82	1815	0.454999057461	-14
82	1835	0.459999177237	-14
82	1859	0.464999484555	-7
82	1875	0.469999356978	-12
82	1899	0.47499975437	-6
82	1915	0.47999992184	-1
82	1935	0.484999876838	-4
82	1959	0.490000259342	6
82	1979	0.494999779342	-1
82	1999	0.500000046845	-1
82	2023	0.505000251847	4
82	2039	0.509999869351	-5
82	2063	0.515000206846	2
82	2079	0.519999734356	-7
82	2103	0.524999856807	1
82	2115	0.529999151817	-12
82	2139	0.534999736745	-3
82	2159	0.539999601727	-8
82	2183	0.544999741663	-2
82	2195	0.549999401647	-8
82	2219	0.554999541583	-7
82	2243	0.559999789048	-5
82	2263	0.565000064038	-2
82	2283	0.56999997403	1
82	2303	0.57499989403	-4
82	2323	0.580000339038	3
82	2343	0.585000161535	1
82	2363	0.590000144034	1
82	2383	0.595000126533	0
82	2403	0.600000439033	6
82	2423	0.605000521479	6
82	2443	0.610000416443	8
82	2463	0.615000088903	-1
82	2483	0.620000356406	7
82	2503	0.624999983885	1
82	2519	0.629999966384	1
82	2539	0.634999886384	1
82	2559	0.639999993881	1
82	2583	0.645000101378	4
82	2603	0.650000031362	0
82	2623	0.655000343862	5
82	2643	0.660000006357	0
82	2663	0.665000068857	0
82	2683	0.669999881357	-1
82	2703	0.674999648852	-4
82	2723	0.679999718836	-1
82	2743	0.684999611333	-5
82	2763	0.689999948828	2
82	2783	0.694999851326	0
82	2803	0.700000038826	2
82	2823	0.705000128818	1
82	2843	0.71000054881	4
82	2863	0.715000728778	7
82	2883	0.720000856201	10
82	2907	0.725000993551	13
82	2927	0.730000953343	10
82	2947	0.735000965713	12
82	2967	0.740000568105	5
82	2987	0.745000918045	8
82	3007	0.750001277917	18
82	3027	0.755000837629	13
82	3047	0.76000060996	9
82	3067	0.765000577361	7
82	3087	0.770000642291	9
82	3107	0.77500048471	9
82	3127	0.780000577093	6
82	3147	0.785001096997	12
82	3167	0.790001136805	12
82	3187	0.795001051637	13
82	3207	0.800001011429	15
82	3227	0.805000811189	12
82	3247	0.810000788509	11
82	3267	0.815000908333	10
82	3287	0.820001108173	12
82	3307	0.825000898029	14
82	3327	0.830000777805	9
82	3347	0.835000932679	13
82	3363	0.84000070501	5
82	3387	0.84500105495	14
82	3407	0.850000747268	11
82	3427	0.855000617136	6
82	3447	0.860001012052	9
82	3467	0.865001229417	12
82	3487	0.870000956785	14
82	3503	0.875000461645	7
82	3523	0.880000526575	6
82	3543	0.885000484033	4
82	3567	0.890000476513	8
82	3583	0.895000148973	0
82	3607	0.900000273973	3
82	3627	0.905000283961	0
82	3647	0.910000721461	12
82	3667	0.915000448829	3
82	3687	0.920000833799	10
82	3707	0.925000721189	7
82	3727	0.930000661133	8
82	3747	0.935000333593	5
82	3767	0.940000371058	3
82	3787	0.945000568537	4
82	3807	0.950000873497	10
82	3827	0.955000635907	7
82	3847	0.960000575851	9
82	3867	0.965000293288	3
82	3887	0.970000365773	4
82	3907	0.975000233261	2
82	3927	0.980000448249	6
82	3947	0.985000530695	3
82	3967	0.990000665677	7
82	3987	0.995000355649	1
82	4012	1.000000713142	5
82	4127	1.005000750607	10
82	4147	1.010000325547	5
82	4163	1.015000238022	3
83	20	0.005	2e-012
83	46	0.009999964996	5e-012
83	66	0.015000597516	5e-012
83	86	0.020000349981	2e-012
83	94	0.025000074971	-2e-012
83	118	0.030000029969	0
83	134	0.034999869969	-3e-012
83	154	0.039999762466	-3e-012
83	174	0.044999974951	-3e-012
83	198	0.050000027442	-2e-012
83	214	0.05499998244	-3e-012
83	238	0.05999979494	-2e-012
83	258	0.06500006993	-3e-012
83	278	0.069999962427	-6e-012
83	294	0.074999587427	-5e-012
83	314	0.079999674902	-8e-012
83	334	0.084999654854	-1e-011
83	354	0.089999189834	-7e-012
83	378	0.094999552264	-6e-012
83	394	0.099999657228	-8e-012
83	414	0.104999317212	-9e-012
83	434	0.109999314649	-8e-012
83	454	0.114999374593	-7e-012
83	478	0.119999817016	-5e-012
83	498	0.124999584511	-9e-012
83	518	0.129999661939	-1.1e-011
83	534	0.134999294395	-1.3e-011
83	554	0.139999041804	-1.5e-011
83	574	0.144998904154	-1.3e-011
83	594	0.149999371446	-1e-011
83	614	0.154999546346	-8e-012
83	634	0.159999446306	-9e-012
83	654	0.164999363752	-8e-012
83	674	0.16999958368	-1.1e-011
83	694	0.174999536092	-1e-011
83	718	0.179999631002	-1.1e-011
83	734	0.184999583414	-9e-012
83	754	0.18999950086	-7e-012
83	774	0.194999623311	-1e-011
83	794	0.199999398261	-8e-012
83	814	0.204999618189	-6e-012
83	834	0.209999723153	-2e-012
83	858	0.215000158139	-5e-012
83	874	0.219999845639	-7e-012
83	894	0.224999728111	-8e-012
83	914	0.229999308103	-1.1e-011
83	934	0.234999340504	-8e-012
83	954	0.239999640424	-6e-012
83	974	0.244999425412	-9e-012
83	994	0.249999662822	-1.1e-011
83	1014	0.254999295278	-1.3e-011
83	1034	0.259999042687	-1.6e-011
83	1054	0.264998842527	-1.6e-011
83	1074	0.269998962303	-1.5e-011
83	1094	0.274998824653	-1.6e-011
83	1114	0.279998784461	-1.5e-011
83	1134	0.284999366676	-1.6e-011
83	1154	0.289998926564	-1.2e-011
83	1174	0.294999456372	-1.2e-011
83	1194	0.299999266288	-1.3e-011
83	1214	0.304999173671	-1e-011
83	1234	0.309999268581	-8e-012
83	1254	0.314999488509	-1.1e-011
83	1274	0.31999952091	-9e-012
83	1294	0.324999278374	-9e-012
83	1314	0.329999435793	-1.1e-011
83	1334	0.334999308216	-1e-011
83	1354	0.339999243146	-1.3e-011
83	1374	0.344999230516	-1.4e-011
83	1394	0.349999315348	-1e-011
83	1414	0.354999330268	-1.2e-011
83	1434	0.359999140184	-1.3e-011
83	1454	0.364999047567	-1.3e-011
83	1474	0.369999434872	-1e-011
83	1494	0.374999529782	-1.3e-011
83	1514	0.379999277191	-1e-011
83	1534	0.384999532081	-1.1e-011
83	1554	0.389999164537	-9e-012
83	1574	0.394999721911	-1.2e-011
83	1594	0.399999451839	-1.3e-011
83	1614	0.404999039274	-1.5e-011
83	1634	0.409999301549	-1.6e-011
83	1654	0.414999021405	-1.6e-011
83	1674	0.419999061197	-1.6e-011
83	1694	0.424998941021	-1.6e-011
83	1714	0.429999220765	-1.6e-011
83	1734	0.434999180573	-1.4e-011
83	1754	0.439999185419	-1.3e-011
83	1774	0.444999332763	-1.4e-011
83	1794	0.449999177637	-1.6e-011
83	1814	0.454999057461	-1.6e-011
83	1834	0.459999177237	-1.3e-011
83	1858	0.464999484555	-1.1e-011
83	1874	0.469999356978	-9e-012
83	1898	0.47499975437	-5e-012
83	1914	0.47999992184	-2e-012
83	1934	0.484999876838	1e-012
83	1958	0.490000259342	0
83	1978	0.494999779342	3e-012
83	1998	0.500000046845	2e-012
83	2022	0.505000251847	-1e-012
83	2038	0.509999869351	-1e-012
83	2062	0.515000206846	-5e-012
83	2078	0.519999734356	-7e-012
83	2102	0.524999856807	-1e-011
83	2114	0.529999151817	-6e-012
83	2138	0.534999736745	-6e-012
83	2158	0.539999601727	-8e-012
83	2182	0.544999741663	-8e-012
83	2194	0.549999401647	-8e-012
83	2218	0.554999541583	-5e-012
83	2242	0.559999789048	-2e-012
83	2262	0.565000064038	-4e-012
83	2282	0.56999997403	0
83	2302	0.57499989403	2e-012
83	2322	0.580000339038	1e-012
83	2342	0.585000161535	1e-012
83	2362	0.590000144034	1e-012
83	2382	0.595000126533	5e-012
83	2402	0.600000439033	9e-012
83	2422	0.605000521479	6e-012
83	2442	0.610000416443	5e-012
83	2462	0.615000088903	3e-012
83	2482	0.620000356406	3e-012
83	2502	0.624999983885	1e-012
83	2518	0.629999966384	0
83	2538	0.634999886384	3e-012
83	2558	0.639999993881	3e-012
83	2582	0.645000101378	4e-012
83	2602	0.650000031362	5e-012
83	2622	0.655000343862	1e-012
83	2642	0.660000006357	1e-012
83	2662	0.665000068857	-3e-012
83	2682	0.669999881357	-5e-012
83	2702	0.674999648852	-4e-012
83	2722	0.679999718836	-3e-012
83	2742	0.684999611333	-1e-012
83	2762	0.689999948828	1e-012
83	2782	0.694999851326	3e-012
83	2802	0.700000038826	4e-012
83	2822	0.705000128818	8e-012
83	2842	0.71000054881	8e-012
83	2862	0.715000728778	1.1e-011
83	2882	0.720000856201	1.5e-011
83	2906	0.725000993551	1.6e-011
83	2926	0.730000953343	1.3e-011
83	2946	0.735000965713	9e-012
83	2966	0.740000568105	1.2e-011
83	2986	0.745000918045	1.6e-011
83	3006	0.750001277917	1.6e-011
83	3026	0.755000837629	1.3e-011
83	3046	0.76000060996	1.1e-011
83	3066	0.765000577361	1e-011
83	3086	0.770000642291	9e-012
83	3106	0.77500048471	1.3e-011
83	3126	0.780000577093	1.6e-011
83	3146	0.785001096997	1.6e-011
83	3166	0.790001136805	1.4e-011
83	3186	0.795001051637	1.6e-011
83	3206	0.800001011429	1.6e-011
83	3226	0.805000811189	1.5e-011
83	3246	0.810000788509	1.6e-011
83	3266	0.815000908333	1.6e-011
83	3286	0.820001108173	1.2e-011
83	3306	0.825000898029	1.6e-011
83	3326	0.830000777805	1.4e-011
83	3346	0.835000932679	1.3e-011
83	3362	0.84000070501	1.2e-011
83	3386	0.84500105495	1.3e-011
83	3406	0.850000747268	1.2e-011
83	3426	0.855000617136	1.4e-011
83	3446	0.860001012052	1.5e-011
83	3466	0.865001229417	1.1e-011
83	3486	0.870000956785	1e-011
83	3502	0.875000461645	1e-011
83	3522	0.880000526575	7e-012
83	3542	0.885000484033	5e-012
83	3566	0.890000476513	5e-012
83	3582	0.895000148973	2e-012
83	3606	0.900000273973	4e-012
83	3626	0.905000283961	7e-012
83	3646	0.910000721461	1.1e-011
83	3666	0.915000448829	1e-011
83	3686	0.920000833799	1.1e-011
83	3706	0.925000721189	8e-012
83	3726	0.930000661133	5e-012
83	3746	0.935000333593	7e-012
83	3766	0.940000371058	7e-012
83	3786	0.945000568537	1e-011
83	3806	0.950000873497	9e-012
83	3826	0.955000635907	8e-012
83	3846	0.960000575851	7e-012
83	3866	0.965000293288	5e-012
83	3886	0.970000365773	3e-012
83	3906	0.975000233261	6e-012
83	3926	0.980000448249	9e-012
83	3946	0.985000530695	6e-012
83	3966	0.990000665677	4e-012
83	3986	0.995000355649	7e-012
83	4011	1.000000713142	7e-012
83	4126	1.005000750607	6e-012
83	4146	1.010000325547	5e-012
83	4162	1.015000238022	4e-012
84	4036	1.00001967	64
84	4067	1.00003924	64
84	4105	1.00005896	64
85	4036	1.00001967	1.967e-005
85	4067	1.00003924	1.9595e-005
85	4105	1.00005896	1.967e-005
86	4036	1.00001967	1
86	4036	1.00001967	0
86	4067	1.00003924	1
86	4067	1.00003924	0
86	4105	1.00005896	1
86	4105	1.00005896	0
87	4036	1.00001967	64
87	4036	1.00001967	0
87	4067	1.00003924	64
87	4067	1.00003924	0
87	4105	1.00005896	64
87	4105	1.00005896	0
88	4038	1.00001967	64
89	4038	1.00001967	0
90	4038	1.00001967	1
90	4038	1.00001967	0
91	4038	1.00001967	64
91	4038	1.00001967	0
98	0	0	0
99	0	0	0
100	0	0	0
105	4025	1.000019645	1.9645e-005
105	4070	1.000039265	1.9595e-005
106	4044	1.000025405	64
107	4024	1.000019645	64
107	4069	1.000039265	64
108	4024	1.000019645	64
108	4069	1.000039265	64
111	4032	1.000019645	64
119	4050	1.000026365	0
124	4050	1.000026365	0
130	24	0.005	2
130	39	0.009999902498	-3
130	63	0.015000267504	5
130	79	0.020000117484	3
130	107	0.025000314963	5
130	127	0.030000539913	7
130	147	0.035000729829	11
130	167	0.040000849653	11
130	187	0.045000969477	10
130	207	0.050001169317	14
130	227	0.055001049093	16
130	243	0.060000518901	5
130	267	0.065000743851	10
130	283	0.070000568751	8
130	307	0.075000428687	6
130	327	0.080000323651	6
130	343	0.085000031133	-3
130	367	0.090000646151	8
130	387	0.095000381103	4
130	403	0.100000186095	2
130	423	0.105000026095	-2
130	443	0.109999998589	2
130	463	0.114999651095	-8
130	483	0.120000041063	-1
130	503	0.124999746057	-5
130	523	0.129999958542	-2
130	543	0.13500005604	2
130	563	0.13999989604	-2
130	583	0.14500005604	-1
130	607	0.150000323543	5
130	623	0.155000236018	0
130	647	0.160000798518	10
130	667	0.165000435948	7
130	687	0.170000250906	3
130	703	0.175000448385	4
130	727	0.180000628353	6
130	747	0.185000835787	9
130	767	0.190000990661	9
130	787	0.195001270517	17
130	807	0.200000910245	14
130	827	0.205000602563	6
130	847	0.210001122467	17
130	867	0.215000699712	7
130	887	0.220000827135	12
130	907	0.225000429527	7
130	923	0.230000181992	3
130	943	0.235000316974	5
130	967	0.240000291944	1
130	983	0.24500046194	5
130	1007	0.25000043691	5
130	1023	0.255000349385	5
130	1047	0.260000199365	3
130	1067	0.265000209353	2
130	1083	0.270000174349	0
130	1099	0.275000049349	1
130	1119	0.279999781852	-4
130	1139	0.285000101852	1
130	1163	0.290000271848	2
130	1187	0.295000236844	3
130	1203	0.300000059341	-2
130	1223	0.305000156839	0
130	1247	0.310000094339	-1
130	1263	0.314999924335	0
130	1279	0.319999611835	-8
130	1303	0.325000064311	-2
130	1323	0.330000286813	3
130	1339	0.334999859322	1
130	1363	0.339999716823	-2
130	1383	0.345000064329	2
130	1399	0.349999966827	-1
130	1423	0.35500023433	4
130	1439	0.360000164314	4
130	1459	0.36499990681	-3
130	1479	0.370000271816	2
130	1499	0.375000111816	1
130	1519	0.380000219313	1
130	1539	0.385000451808	8
130	1559	0.389999999284	-1
[...]
131	1162	0.290000271848	2e-012
131	1186	0.295000236844	1e-012
131	1202	0.300000059341	-1e-012
131	1222	0.305000156839	-1e-012
131	1246	0.310000094339	-4e-012
131	1262	0.314999924335	-5e-012
131	1278	0.319999611835	-3e-012
131	1302	0.325000064311	1e-012
131	1322	0.330000286813	-3e-012
131	1338	0.334999859322	-1e-012
131	1362	0.339999716823	3e-012
131	1382	0.345000064329	1e-012
131	1398	0.349999966827	3e-012
131	1422	0.35500023433	4e-012
131	1438	0.360000164314	1e-012
131	1458	0.36499990681	2e-012
131	1478	0.370000271816	0
131	1498	0.375000111816	3e-012
131	1518	0.380000219313	5e-012
131	1538	0.385000451808	3e-012
131	1558	0.389999999284	-1e-012
131	1578	0.395000016783	-4e-012
131	1598	0.399999686787	-4e-012
131	1618	0.404999596779	-7e-012
131	1638	0.409999559244	-7e-012
131	1658	0.414999601702	-8e-012
131	1678	0.419999341678	-6e-012
131	1698	0.424999846612	-7e-012
131	1718	0.429999809077	-9e-012
131	1738	0.434999326568	-1.2e-011
131	1758	0.43999929646	-8e-012
131	1778	0.444999676372	-8e-012
131	1798	0.449999736316	-1.1e-011
131	1818	0.454999448761	-8e-012
131	1838	0.459999508705	-8e-012
131	1854	0.464999408665	-5e-012
131	1878	0.469999736125	-4e-012
131	1894	0.474999726113	-2e-012
131	1922	0.480000001103	2e-012
131	1938	0.485000046101	5e-012
131	1954	0.490000118586	6e-012
131	1986	0.495000333574	1e-011
131	2006	0.500000798554	7e-012
131	2026	0.505000355977	1.1e-011
131	2046	0.510000963466	9e-012
131	2066	0.515000725876	8e-012
131	2086	0.520000425796	6e-012
131	2106	0.525000240754	7e-012
131	2126	0.530000598247	4e-012
131	2146	0.535000128211	1e-012
131	2166	0.540000190711	2e-012
131	2186	0.545000235709	1e-012
131	2206	0.550000138207	0
131	2226	0.555000058207	-4e-012
131	2238	0.559999728211	-5e-012
131	2258	0.564999495706	-2e-012
131	2278	0.569999770696	-5e-012
131	2298	0.574999698181	-9e-012
131	2314	0.579999215672	-1.1e-011
131	2338	0.58499948804	-1.4e-011
131	2358	0.589999172942	-1.6e-011
131	2374	0.594998972782	-1.5e-011
131	2394	0.599999075087	-1.3e-011
131	2414	0.604999382405	-1.6e-011
131	2434	0.609998942293	-1.6e-011
131	2454	0.614999142053	-1.2e-011
131	2474	0.619999511885	-9e-012
131	2494	0.624999669304	-9e-012
131	2514	0.629999266786	-1.1e-011
131	2534	0.634999459165	-1.2e-011
131	2554	0.639999349069	-1.4e-011
131	2574	0.644999273929	-1.2e-011
131	2594	0.649999403797	-1.4e-011
131	2614	0.654999088699	-1.4e-011
131	2634	0.659999333503	-1.6e-011
131	2654	0.664999053359	-1.6e-011
131	2674	0.669999013167	-1.5e-011
131	2698	0.674999355427	-1.3e-011
131	2714	0.67999926281	-1.6e-011
131	2734	0.684999222618	-1.2e-011
131	2754	0.689999032534	-1.2e-011
131	2774	0.69499924239	-1.2e-011
131	2794	0.699999052306	-1.4e-011
131	2814	0.704998977166	-1.3e-011
131	2838	0.709999284484	-1e-011
131	2858	0.714999379394	-6e-012
131	2878	0.719999884328	-7e-012
131	2898	0.7249997668	-4e-012
131	2918	0.729999676792	-3e-012
131	2938	0.734999969274	-5e-012
131	2958	0.739999576779	-2e-012
131	2978	0.745000091763	-2e-012
131	2998	0.749999886765	-2e-012
131	3018	0.754999841763	-3e-012
131	3038	0.759999894254	-3e-012
131	3058	0.764999946745	-4e-012
131	3078	0.769999536753	-7e-012
131	3098	0.774999659204	-6e-012
131	3118	0.779999764168	-4e-012
131	3138	0.784999514168	-1e-012
131	3158	0.789999771664	-4e-012
131	3174	0.79499960166	-5e-012
131	3198	0.79999976913	-8e-012
131	3218	0.804999429114	-5e-012
131	3234	0.809999676579	-6e-012
131	3258	0.814999861537	-9e-012
131	3274	0.819999698992	-1.1e-011
131	3298	0.824999571415	-1.4e-011
131	3314	0.829999176331	-1.5e-011
131	3334	0.834999358621	-1.6e-011
131	3354	0.839999238445	-1.4e-011
131	3374	0.844999243291	-1.3e-011
131	3394	0.849999150674	-1.1e-011
131	3414	0.854999423042	-1.2e-011
131	3438	0.859999392934	-1.1e-011
131	3458	0.864999585313	-1.4e-011
131	3474	0.869999110243	-1.4e-011
131	3494	0.874998955117	-1.6e-011
131	3518	0.879999154877	-1.6e-011
131	3538	0.884999114685	-1.6e-011
131	3558	0.889999314445	-1.3e-011
131	3578	0.894999301815	-1.3e-011
131	3598	0.899999049224	-1.3e-011
131	3618	0.904999276555	-1e-011
131	3638	0.909999611435	-7e-012
131	3658	0.914999493907	-8e-012
131	3678	0.919999553851	-1e-011
131	3698	0.924999568771	-1e-011
131	3714	0.929999263731	-1.4e-011
131	3734	0.934999108605	-1.3e-011
131	3758	0.939999415923	-1.3e-011
131	3774	0.944999083345	-1e-011
131	3802	0.949999498215	-1.2e-011
131	3814	0.954999068167	-9e-012
131	3842	0.959999385568	-5e-012
131	3862	0.964999793023	-4e-012
131	3878	0.969999943003	-7e-012
131	3898	0.97499942551	-7e-012
131	3918	0.97999978794	-8e-012
131	3938	0.984999607908	-1.1e-011
131	3958	0.989999160375	-1.4e-011
131	3974	0.994999005249	-1.3e-011
131	3998	0.999998992619	-1.5e-011
131	4118	1.004999014939	-1.4e-011
131	4134	1.009998939799	-1.2e-011
131	4158	1.014999229643	-1e-011
132	4027	1.000019645	64
132	4072	1.000039265	64
133	4027	1.000019645	1.9645e-005
133	4072	1.000039265	1.9595e-005
134	4027	1.000019645	1
134	4027	1.000019645	0
134	4072	1.000039265	1
134	4072	1.000039265	0
135	4027	1.000019645	64
135	4027	1.000019645	0
135	4072	1.000039265	64
135	4072	1.000039265	0
136	4029	1.000019645	64
137	4029	1.000019645	0
138	4029	1.000019645	1
138	4029	1.000019645	0
139	4029	1.000019645	64
139	4029	1.000019645	0
146	0	0	0
147	0	0	0
148	0	0	0
153	4015	1.00000586	5.86e-006
153	4089	1.00004515	5.86e-006
154	4061	1.00003919	64
154	4090	1.00004591	64
155	4014	1.00000586	64
155	4088	1.00004515	64
156	4014	1.00000586	64
156	4088	1.00004515	64
159	4056	1.00003343	64
159	4085	1.00004015	64
165	0	0	0
166	0	0	0
167	0	0	0
172	4049	1.00002548	5.81e-006
173	4022	1.00001962	64
173	4062	1.00003919	64
173	4101	1.00005891	64
174	4048	1.00002548	64
175	4048	1.00002548	64
178	4020	1.00001386	64
178	4057	1.00003343	64
178	4100	1.00005315	64
184	0	0	0
185	0	0	0
186	0	0	0
191	4047	1.00002543	5.785e-006
192	4023	1.00001962	64
192	4064	1.00003924	64
193	4045	1.00002543	64
194	4045	1.00002543	64
197	4021	1.00001386	64
197	4060	1.00003348	64
205	4083	1.00004015	0
205	4097	1.00004687	0
210	4042	1.00002058	0
210	4084	1.00004015	0
210	4107	1.00005987	0
215	4043	1.00002058	0
215	4086	1.0000402	0
220	4083	1.00004015	0
220	4097	1.00004687	0
225	4042	1.00002058	0
225	4084	1.00004015	0
225	4107	1.00005987	0
230	4043	1.00002058	0
230	4086	1.0000402	0
233	27	0.005	2
233	35	0.00999984	-1
233	55	0.014999857499	-3
233	83	0.020000285008	2
233	103	0.025000125008	-1
233	123	0.03000033001	4
233	139	0.035000135002	2
233	159	0.040000162496	2
233	179	0.045000127492	-1
233	203	0.050000394995	7
233	223	0.055000272446	0
233	247	0.060000834946	12
233	263	0.065000249874	0
233	287	0.070000687374	11
233	303	0.07500005733	0
233	323	0.08000030733	2
233	347	0.08500045982	6
233	363	0.090000104808	3
233	383	0.09500023979	-1
233	407	0.100000819798	11
233	427	0.105000252243	3
233	447	0.110000449722	8
233	467	0.11500005969	2
233	487	0.12000021218	1
233	507	0.125000257178	1
233	527	0.13000005218	0
233	547	0.13500017718	3
233	567	0.140000124671	4
233	587	0.145000179647	3
233	603	0.150000252132	6
233	627	0.155000272084	2
233	643	0.160000674566	8
233	663	0.165000347026	6
233	683	0.17000024199	2
233	707	0.175000519476	4
233	723	0.180000574452	10
233	739	0.185000086902	1
233	763	0.190000444395	8
233	783	0.195000054363	2
233	799	0.199999956861	-3
233	823	0.205000321867	1
233	843	0.210000491863	8
233	855	0.214999851863	0
233	879	0.219999976863	-3
233	899	0.225000091857	2
233	919	0.229999994355	-4
233	947	0.235000439363	7
233	959	0.240000066842	0
233	979	0.245000129342	1
233	1003	0.250000361837	1
233	1019	0.255000344336	7
233	1039	0.259999971815	1
233	1059	0.264999891815	-1
233	1079	0.270000159318	-1
233	1107	0.275000301819	3
233	1123	0.280000311807	3
233	1143	0.285000196801	2
233	1159	0.290000224295	4
233	1183	0.295000216775	0
233	1207	0.300000404275	7
233	1219	0.305000094247	2
233	1239	0.309999996745	-1
233	1267	0.315000076745	-3
233	1287	0.320000566757	9
233	1299	0.324999909248	-5
233	1327	0.330000434258	2
233	1347	0.335000586748	5
233	1367	0.340000561718	8
233	1387	0.345000484146	6
233	1407	0.350000816568	10
233	1427	0.355001016408	15
233	1447	0.360000566228	9
233	1467	0.36500059612	7
233	1487	0.370000598557	10
233	1503	0.375000235987	1
233	1527	0.380000843476	9
233	1543	0.385000623404	6
233	1567	0.390000455874	7
233	1583	0.39500002086	2
233	1603	0.400000048354	-1
233	1623	0.40500050336	6
233	1643	0.410000148348	1
233	1663	0.415000255845	3
233	1683	0.420000015845	2
233	1703	0.424999980841	-4
233	1727	0.430000488353	7
233	1743	0.43499986586	0
233	1763	0.43999980336	-3
233	1787	0.44500004336	1
233	1803	0.450000025859	-2
233	1823	0.455000185859	-1
233	1847	0.460000265859	0
233	1863	0.465000203359	3
233	1883	0.470000025856	2
233	1903	0.474999803358	-3
233	1919	0.479999980855	-4
233	1943	0.485000238351	-1
233	1963	0.490000443353	8
233	1975	0.494999740861	-3
233	1995	0.499999793352	-3
233	2019	0.50499978334	-2
233	2043	0.509999880838	-5
233	2059	0.515000155828	1
233	2075	0.519999700834	-4
233	2095	0.524999458298	-8
233	2119	0.529999348202	-12
233	2143	0.534999808106	-4
233	2163	0.53999987809	-1
233	2179	0.544999583084	-3
233	2203	0.549999510569	-6
233	2223	0.554999803051	-4
233	2247	0.560000123051	0
233	2267	0.565000373051	2
233	2287	0.570000713035	7
233	2307	0.575000527993	7
233	2327	0.58000053043	7
233	2347	0.585000657853	10
233	2367	0.590000420263	3
233	2387	0.595000992724	9
233	2407	0.600001210089	16
233	2427	0.605000867349	11
233	2447	0.610000862195	7
233	2467	0.615001302083	14
233	2487	0.620001181859	13
233	2507	0.625001016677	13
233	2527	0.630000851495	11
233	2547	0.635000971319	15
233	2567	0.640000521139	6
233	2587	0.645000728573	11
233	2607	0.65000066093	7
233	2627	0.655001100818	12
233	2647	0.660001140626	13
233	2667	0.665001100418	16
233	2687	0.670000757678	6
233	2707	0.675001027606	11
233	2727	0.68000114743	16
233	2747	0.685000867174	11
233	2767	0.690000986998	12
233	2787	0.695000839342	10
233	2807	0.700000664242	10
233	2827	0.705000676612	9
233	2847	0.710000956468	12
233	2867	0.715000996276	10
233	2887	0.720000946156	14
233	2903	0.725000451016	3
233	2923	0.730000835986	11
233	2943	0.735000580876	7
233	2963	0.740000395834	4
233	2983	0.745000575802	6
233	3003	0.750000470766	2
233	3023	0.755000623256	5
233	3043	0.760000598226	8
233	3063	0.765000208194	3
233	3083	0.770000218182	3
233	3103	0.775000040679	-3
233	3123	0.780000280679	4
233	3143	0.785000023175	-2
233	3163	0.790000370681	1
233	3183	0.795000290681	1
233	3203	0.800000335679	7
233	3223	0.804999963158	1
233	3243	0.810000320651	2
233	3263	0.815000660635	9
233	3283	0.820000440563	7
233	3303	0.825000567986	7
233	3323	0.830000695409	8
233	3343	0.835000555345	4
233	3367	0.840000797809	8
233	3383	0.845000657745	11
233	3403	0.850000465124	7
233	3423	0.855000405068	5
233	3443	0.860000255048	4
233	3463	0.865000310024	5
233	3483	0.870000472479	7
233	3507	0.875000474916	6
233	3527	0.880000744844	8
233	3547	0.885000667272	8
233	3563	0.890000402224	2
233	3587	0.895000429718	6
233	3603	0.900000012212	-3
233	3623	0.905000252212	2
233	3643	0.90999984222	-4
233	3663	0.915000037212	1
233	3683	0.919999832214	-5
233	3703	0.925000107204	0
233	3723	0.929999794704	-2
233	3743	0.934999392186	-5
233	3763	0.939999417156	-6
233	3779	0.944999397108	-5
233	3799	0.949999297068	-12
233	3823	0.954999506924	-6
233	3835	0.959999236852	-8
233	3859	0.96499931428	-8
233	3875	0.969999516724	-5
233	3895	0.974999354179	-11
233	3915	0.97999967158	-2
233	3935	0.984999081556	-9
233	3955	0.989998863921	-16
233	3979	0.994999143665	-9
233	3995	0.999998863521	-12
233	4115	1.004998823329	-18
233	4139	1.009999263041	-10
233	4155	1.014999187901	-10
234	26	0.005	0
234	34	0.00999984	-1e-012
234	54	0.014999857499	3e-012
234	82	0.020000285008	0
234	102	0.025000125008	2e-012
234	122	0.03000033001	2e-012
234	138	0.035000135002	3e-012
234	158	0.040000162496	2e-012
234	178	0.045000127492	3e-012
234	202	0.050000394995	7e-012
234	222	0.055000272446	9e-012
234	246	0.060000834946	6e-012
234	262	0.065000249874	7e-012
234	286	0.070000687374	4e-012
234	302	0.07500005733	4e-012
234	322	0.08000030733	5e-012
234	346	0.08500045982	2e-012
234	362	0.090000104808	6e-012
234	382	0.09500023979	8e-012
234	406	0.100000819798	5e-012
234	426	0.105000252243	7e-012
234	446	0.110000449722	4e-012
234	466	0.11500005969	5e-012
234	486	0.12000021218	2e-012
234	506	0.125000257178	-2e-012
234	526	0.13000005218	2e-012
234	546	0.13500017718	3e-012
234	566	0.140000124671	6e-012
234	586	0.145000179647	5e-012
234	602	0.150000252132	8e-012
234	626	0.155000272084	9e-012
234	642	0.160000674566	5e-012
234	662	0.165000347026	6e-012
234	682	0.17000024199	7e-012
234	706	0.175000519476	6e-012
234	722	0.180000574452	5e-012
234	738	0.185000086902	7e-012
234	762	0.190000444395	4e-012
234	782	0.195000054363	1e-012
234	798	0.199999956861	2e-012
234	822	0.205000321867	4e-012
234	842	0.210000491863	0
234	854	0.214999851863	2e-012
234	878	0.219999976863	-2e-012
234	898	0.225000091857	1e-012
234	918	0.229999994355	2e-012
234	946	0.235000439363	3e-012
234	958	0.240000066842	1e-012
234	978	0.245000129342	5e-012
234	1002	0.250000361837	1e-012
234	1018	0.255000344336	3e-012
234	1038	0.259999971815	0
234	1058	0.264999891815	3e-012
234	1078	0.270000159318	1e-012
234	1106	0.275000301819	4e-012
234	1122	0.280000311807	2e-012
234	1142	0.285000196801	3e-012
234	1158	0.290000224295	5e-012
234	1182	0.295000216775	3e-012
234	1206	0.300000404275	4e-012
234	1218	0.305000094247	1e-012
234	1238	0.309999996745	0
234	1266	0.315000076745	4e-012
234	1286	0.320000566757	1e-012
234	1298	0.324999909248	2e-012
234	1326	0.330000434258	5e-012
234	1346	0.335000586748	6e-012
234	1366	0.340000561718	9e-012
234	1386	0.345000484146	1.3e-011
234	1406	0.350000816568	1.6e-011
234	1426	0.355001016408	1.2e-011
234	1446	0.360000566228	1.2e-011
234	1466	0.36500059612	9e-012
234	1486	0.370000598557	7e-012
234	1502	0.375000235987	1.1e-011
234	1526	0.380000843476	8e-012
234	1542	0.385000623404	5e-012
234	1566	0.390000455874	2e-012
234	1582	0.39500002086	3e-012
234	1602	0.400000048354	6e-012
234	1622	0.40500050336	2e-012
234	1642	0.410000148348	3e-012
234	1662	0.415000255845	0
234	1682	0.420000015845	2e-012
234	1702	0.424999980841	3e-012
234	1726	0.430000488353	-1e-012
234	1742	0.43499986586	-1e-012
234	1762	0.43999980336	0
234	1786	0.44500004336	1e-012
234	1802	0.450000025859	0
234	1822	0.455000185859	0
234	1846	0.460000265859	-1e-012
234	1862	0.465000203359	1e-012
234	1882	0.470000025856	-1e-012
234	1902	0.474999803358	-1e-012
234	1918	0.479999980855	-1e-012
234	1942	0.485000238351	2e-012
234	1962	0.490000443353	-1e-012
234	1974	0.494999740861	-3e-012
234	1994	0.499999793352	-4e-012
234	2018	0.50499978334	-1e-012
234	2042	0.509999880838	-2e-012
234	2058	0.515000155828	-6e-012
234	2074	0.519999700834	-9e-012
234	2094	0.524999458298	-1.2e-011
234	2118	0.529999348202	-8e-012
234	2142	0.534999808106	-4e-012
234	2162	0.53999987809	-6e-012
234	2178	0.544999583084	-5e-012
234	2202	0.549999510569	-3e-012
234	2222	0.554999803051	0
234	2246	0.560000123051	4e-012
234	2266	0.565000373051	8e-012
234	2286	0.570000713035	6e-012
234	2306	0.575000527993	9e-012
234	2326	0.58000053043	1.1e-011
234	2346	0.585000657853	9e-012
234	2366	0.590000420263	1.3e-011
234	2386	0.595000992724	1.5e-011
234	2406	0.600001210089	1.5e-011
234	2426	0.605000867349	1.4e-011
234	2446	0.610000862195	1.6e-011
234	2466	0.615001302083	1.6e-011
234	2486	0.620001181859	1.4e-011
234	2506	0.625001016677	1.4e-011
234	2526	0.630000851495	1.6e-011
234	2546	0.635000971319	1.2e-011
234	2566	0.640000521139	1.1e-011
234	2586	0.645000728573	1.3e-011
234	2606	0.65000066093	1.6e-011
234	2626	0.655001100818	1.6e-011
234	2646	0.660001140626	1.6e-011
234	2666	0.665001100418	1.5e-011
234	2686	0.670000757678	1.2e-011
234	2706	0.675001027606	1.6e-011
234	2726	0.68000114743	1.6e-011
234	2746	0.685000867174	1.6e-011
234	2766	0.690000986998	1.3e-011
234	2786	0.695000839342	1e-011
234	2806	0.700000664242	1.3e-011
234	2826	0.705000676612	1.6e-011
234	2846	0.710000956468	1.6e-011
234	2866	0.715000996276	1.2e-011
234	2886	0.720000946156	1e-011
234	2902	0.725000451016	1e-011
234	2922	0.730000835986	1e-011
234	2942	0.735000580876	6e-012
234	2962	0.740000395834	8e-012
234	2982	0.745000575802	6e-012
234	3002	0.750000470766	5e-012
234	3022	0.755000623256	6e-012
234	3042	0.760000598226	4e-012
234	3062	0.765000208194	4e-012
234	3082	0.770000218182	1e-012
234	3102	0.775000040679	0
234	3122	0.780000280679	1e-012
234	3142	0.785000023175	3e-012
234	3162	0.790000370681	0
234	3182	0.795000290681	2e-012
234	3202	0.800000335679	3e-012
234	3222	0.804999963158	7e-012
234	3242	0.810000320651	8e-012
234	3262	0.815000660635	8e-012
234	3282	0.820000440563	1.1e-011
234	3302	0.825000567986	1.1e-011
234	3322	0.830000695409	8e-012
234	3342	0.835000555345	9e-012
234	3366	0.840000797809	8e-012
234	3382	0.845000657745	1.1e-011
234	3402	0.850000465124	8e-012
234	3422	0.855000405068	4e-012
234	3442	0.860000255048	6e-012
234	3462	0.865000310024	9e-012
234	3482	0.870000472479	9e-012
234	3506	0.875000474916	1.2e-011
234	3526	0.880000744844	9e-012
234	3546	0.885000667272	6e-012
234	3562	0.890000402224	3e-012
234	3586	0.895000429718	1e-012
234	3602	0.900000012212	0
234	3622	0.905000252212	-4e-012
234	3642	0.90999984222	-2e-012
234	3662	0.915000037212	-2e-012
234	3682	0.919999832214	-2e-012
234	3702	0.925000107204	-5e-012
234	3722	0.929999794704	-9e-012
234	3742	0.934999392186	-6e-012
234	3762	0.939999417156	-8e-012
234	3778	0.944999397108	-8e-012
234	3798	0.949999297068	-1.2e-011
234	3822	0.954999506924	-1.2e-011
234	3834	0.959999236852	-9e-012
234	3858	0.96499931428	-7e-012
234	3874	0.969999516724	-9e-012
234	3894	0.974999354179	-9e-012
234	3914	0.97999967158	-1.2e-011
234	3934	0.984999081556	-1.5e-011
234	3954	0.989998863921	-1.6e-011
234	3978	0.994999143665	-1.6e-011
234	3994	0.999998863521	-1.6e-011
234	4114	1.004998823329	-1.6e-011
234	4138	1.009999263041	-1.4e-011
234	4154	1.014999187901	-1.1e-011
239	0	0	0
240	0	0	0
241	0	0	0
242	0	0	0
243	0	0	0
244	0	0	0
245	0	0	0
246	0	0	0
247	0	0	0
248	0	0	0
249	0	0	0
250	0	0	0
251	0	0	0
252	0	0	0
253	0	0	0
254	0	0	0
255	0	0	0
256	0	0	0
257	0	0	0
258	0	0	0
259	0	0	0
260	0	0	0
261	0	0	0
262	0	0	0
263	0	0	0
264	0	0	0
265	0	0	0
266	0	0	0
267	0	0	0
268	0	0	0
269	0	0	0
270	0	0	0
271	0	0	0
272	0	0	0
273	0	0	0
274	0	0	0
275	0	0	0
276	0	0	0
277	0	0	0
278	0	0	0
279	0	0	0
280	0	0	0
281	0	0	0
282	0	0	0
283	0	0	0
284	0	0	0
285	0	0	0
286	0	0	0
287	0	0	0
288	0	0	0
289	0	0	0
290	0	0	0
291	0	0	0
292	0	0	0
293	0	0	0
294	0	0	0
295	0	0	0
296	0	0	0
297	0	0	0
298	0	0	0
299	0	0	0
300	0	0	0
301	0	0	0
302	0	0	0
303	0	0	0
304	0	0	0
305	0	0	0
306	0	0	0
307	0	0	0
308	0	0	0
309	0	0	0
310	0	0	0
311	0	0	0
312	0	0	0
313	0	0	0
314	0	0	0
315	0	0	0
316	0	0	0
317	0	0	0
318	0	0	0
319	0	0	0
320	0	0	0
321	0	0	0
322	0	0	0
323	0	0	0
324	0	0	0
325	0	0	0
326	0	0	0
327	0	0	0
328	0	0	0
329	0	0	0
330	0	0	0
331	0	0	0
332	0	0	0
333	0	0	0
334	0	0	0
335	0	0	0
336	0	0	0
337	0	0	0
338	0	0	0
339	0	0	0
340	0	0	0
341	0	0	0
342	0	0	0
343	0	0	0
344	0	0	0
345	0	0	0
346	0	0	0
347	0	0	0
347	4058	1.00003348	1
347	4083	1.00004015	0
348	0	0	0
348	4058	1.00003348	64
348	4083	1.00004015	0
349	0	0	0
350	0	0	0
351	0	0	0
352	0	0	0
353	0	0	0
354	0	0	0
355	0	0	0
356	0	0	0
357	0	0	0
358	0	0	0
359	0	0	0
360	0	0	0
361	0	0	0
362	0	0	0
363	0	0	0
364	0	0	0
365	0	0	0
366	0	0	0
367	0	0	0
368	0	0	0
369	0	0	0
370	0	0	0
371	0	0	0
372	0	0	0
373	0	0	0
374	0	0	0
375	0	0	0
376	0	0	0
377	0	0	0
378	0	0	0
379	0	0	0
380	0	0	0
381	0	0	0
382	0	0	0
383	0	0	0
384	0	0	0
385	0	0	0
386	0	0	0
387	0	0	0
388	0	0	0
389	0	0	0
390	0	0	0
391	0	0	0
392	0	0	0
393	0	0	0
394	0	0	0
395	0	0	0
396	0	0	0
397	0	0	0
398	0	0	0
399	0	0	0
400	0	0	0
401	0	0	0
402	0	0	0
403	0	0	0
404	0	0	0
405	0	0	0
406	0	0	0
407	0	0	0
408	0	0	0
409	0	0	0
410	0	0	0
411	0	0	0
412	0	0	0
413	0	0	0
414	0	0	0
415	0	0	0
416	0	0	0
417	0	0	0
418	0	0	0
419	0	0	0
420	0	0	0
421	0	0	0
422	0	0	0
423	0	0	0
424	0	0	0
425	0	0	0
426	0	0	0
427	0	0	0
428	0	0	0
429	0	0	0
430	0	0	0
431	0	0	0
432	0	0	0
433	0	0	0
434	0	0	0
435	0	0	0
436	0	0	0
437	0	0	0
438	0	0	0
439	0	0	0
440	0	0	0
441	0	0	0
442	0	0	0
443	0	0	0
444	0	0	0
445	0	0	0
446	0	0	0
447	0	0	0
448	0	0	0
449	0	0	0
450	0	0	0
451	0	0	0
452	0	0	0
453	0	0	0
454	0	0	0
